Circuit: * C:\users\tta21\My Documents\work\Univali\2021-2\Eletronica Basica\transistor_exerc\stuff\3\Draft2.asc


Date: Thu Nov 04 19:19:05 2021
Total elapsed time: 0.164 seconds.

tnom = 27
temp = 27
method = trap
totiter = 12011
traniter = 0
tranpoints = 0
accept = 0
rejected = 0
matrix size = 6
fillins = 0
solver = Normal
Matrix Compiler1: 280 bytes object code size  0.4/0.2/[0.2]
Matrix Compiler2: 428 bytes object code size  0.2/0.2/[0.1]

