Circuit: * C:\users\tta21\My Documents\work\Univali\2021-2\Eletronica Basica\transistor_exerc\Draft1.asc

Direct Newton iteration failed to find .op point.  (Use ".option noopiter" to skip.)
Starting Gmin stepping
Gmin = 10
Gmin = 1.07374
Gmin = 0.115292
Gmin = 0.0123794
Gmin = 0.00132923
Gmin = 0.000142725
Gmin = 1.5325e-005
Gmin = 1.6455e-006
Gmin = 1.76685e-007
Gmin = 1.89714e-008
Gmin = 2.03704e-009
vernier = 0.5
vernier = 0.25
vernier = 0.333333
Gmin = 1.28183e-009
vernier = 0.444444
vernier = 0.222222
vernier = 0.111111
Gmin = 8.57203e-010
vernier = 0.148148
vernier = 0.197531
Gmin = 5.9245e-010
vernier = 0.263374
vernier = 0.131687
vernier = 0.0658435
Gmin = 4.65205e-010
vernier = 0.0877914
vernier = 0.117055
Gmin = 3.7311e-010
vernier = 0.156073
vernier = 0.0780367
vernier = 0.0390184
Gmin = 3.22911e-010
vernier = 0.0520245
vernier = 0.0693659
Gmin = 2.83169e-010
vernier = 0.0924879
Gmin = 2.3047e-010
vernier = 0.123317
vernier = 0.0616586
vernier = 0.0308293
vernier = 0.0411057
Gmin = 2.17301e-010
vernier = 0.0548076
Gmin = 1.92238e-010
vernier = 0.0730768
vernier = 0.0365384
vernier = 0.0182692
Gmin = 1.78787e-010
vernier = 0.0243589
vernier = 0.0324786
Gmin = 1.67494e-010
vernier = 0.0433047
vernier = 0.0577396
Gmin = 1.51071e-010
vernier = 0.0288698
vernier = 0.0144349
Gmin = 1.41121e-010
vernier = 0.0192465
vernier = 0.025662
Gmin = 1.344e-010
vernier = 0.0342161
Gmin = 1.24479e-010
vernier = 0.0456214
vernier = 0.0608285
vernier = 0.0304143
vernier = 0.0152071
Gmin = 1.1585e-010
vernier = 0.0202762
Gmin = 1.10695e-010
vernier = 0.0270349
vernier = 0.0360465
Gmin = 1.02563e-010
vernier = 0.048062
vernier = 0.024031
vernier = 0.0120155
Gmin = 9.92397e-011
vernier = 0.0160207
vernier = 0.0213609
Gmin = 9.48457e-011
vernier = 0.0284812
vernier = 0.0379749
vernier = 0.0189874
Gmin = 8.99297e-011
vernier = 0.00949371
vernier = 0.0126583
Gmin = 8.7754e-011
vernier = 0.0168777
vernier = 0.0225036
Gmin = 8.40771e-011
vernier = 0.0300048
Gmin = 7.86065e-011
vernier = 0.0400064
vernier = 0.0200032
vernier = 0.0100016
vernier = 0.0133355
Gmin = 7.71161e-011
vernier = 0.0177806
Gmin = 7.40979e-011
vernier = 0.0237075
vernier = 0.03161
vernier = 0.015805
vernier = 0.00790249
Gmin = 7.13756e-011
vernier = 0.0105366
Gmin = 6.97054e-011
vernier = 0.0140489
vernier = 0.0187318
Gmin = 6.69907e-011
vernier = 0.0249757
vernier = 0.033301
vernier = 0.0166505
Gmin = 6.39347e-011
vernier = 0.00832524
vernier = 0.0111003
Gmin = 6.2576e-011
vernier = 0.0148004
vernier = 0.0197339
Gmin = 6.02701e-011
vernier = 0.0263119
vernier = 0.0131559
vernier = 0.00657796
Gmin = 5.88047e-011
vernier = 0.00877062
vernier = 0.0116942
Gmin = 5.75098e-011
vernier = 0.0155922
Gmin = 5.55307e-011
vernier = 0.0207896
vernier = 0.0277195
vernier = 0.0138597
vernier = 0.00692986
Gmin = 5.3737e-011
vernier = 0.00923982
Gmin = 5.26325e-011
vernier = 0.0123198
vernier = 0.0164263
Gmin = 5.08301e-011
vernier = 0.0219018
vernier = 0.0109509
vernier = 0.00547544
Gmin = 5.00716e-011
vernier = 0.00730059
vernier = 0.00973411
Gmin = 4.90476e-011
vernier = 0.0129788
vernier = 0.0173051
Gmin = 4.74586e-011
vernier = 0.0230734
vernier = 0.0115367
vernier = 0.00576836
Gmin = 4.64449e-011
vernier = 0.00769114
vernier = 0.0102549
Gmin = 4.55467e-011
vernier = 0.0136731
Gmin = 4.4169e-011
vernier = 0.0182308
vernier = 0.00911542
vernier = 0.00455771
vernier = 0.00607695
Gmin = 4.36526e-011
vernier = 0.00810259
Gmin = 4.28864e-011
vernier = 0.0108035
vernier = 0.0144046
Gmin = 4.16609e-011
vernier = 0.0192061
vernier = 0.00960307
vernier = 0.00480153
Gmin = 4.10168e-011
vernier = 0.00640204
vernier = 0.00853606
Gmin = 4.03177e-011
vernier = 0.0113814
vernier = 0.0151752
Gmin = 3.92347e-011
vernier = 0.0202336
vernier = 0.0101168
vernier = 0.0050584
Gmin = 3.84016e-011
vernier = 0.00674453
vernier = 0.00899271
Gmin = 3.77866e-011
vernier = 0.0119903
Gmin = 3.68097e-011
vernier = 0.015987
vernier = 0.00799351
vernier = 0.00399676
vernier = 0.00532901
Gmin = 3.64683e-011
vernier = 0.00710534
Gmin = 3.59063e-011
vernier = 0.00947379
vernier = 0.0126317
Gmin = 3.50048e-011
vernier = 0.0168423
vernier = 0.00842114
vernier = 0.00421057
Gmin = 3.45296e-011
vernier = 0.00561409
vernier = 0.00748545
Gmin = 3.4013e-011
vernier = 0.0099806
vernier = 0.0133075
Gmin = 3.32103e-011
vernier = 0.0177433
vernier = 0.00887164
vernier = 0.00443582
Gmin = 3.2591e-011
vernier = 0.00591443
vernier = 0.0078859
Gmin = 3.21328e-011
vernier = 0.0105145
Gmin = 3.1403e-011
vernier = 0.0140194
vernier = 0.00700968
vernier = 0.00350484
vernier = 0.00467312
Gmin = 3.11474e-011
vernier = 0.00623083
Gmin = 3.0726e-011
vernier = 0.00830777
vernier = 0.011077
Gmin = 3.00484e-011
vernier = 0.0147694
vernier = 0.00738468
vernier = 0.00369234
Gmin = 2.96904e-011
vernier = 0.00492312
vernier = 0.00656416
Gmin = 2.93004e-011
vernier = 0.00875221
vernier = 0.0116696
Gmin = 2.8693e-011
vernier = 0.0155595
vernier = 0.00777973
vernier = 0.00388987
Gmin = 2.82232e-011
vernier = 0.00518649
vernier = 0.00691532
Gmin = 2.78749e-011
vernier = 0.00922042
Gmin = 2.73189e-011
vernier = 0.0122939
vernier = 0.00614694
vernier = 0.00307347
vernier = 0.00409796
Gmin = 2.71238e-011
vernier = 0.00546395
Gmin = 2.68017e-011
vernier = 0.00728526
vernier = 0.00971368
Gmin = 2.62826e-011
vernier = 0.0129516
vernier = 0.00647579
vernier = 0.00323789
Gmin = 2.60077e-011
vernier = 0.00431719
vernier = 0.00575625
Gmin = 2.57079e-011
vernier = 0.007675
vernier = 0.0102333
Gmin = 2.52399e-011
vernier = 0.0136444
vernier = 0.00682222
vernier = 0.00341111
Gmin = 2.48771e-011
vernier = 0.00454814
vernier = 0.00606419
Gmin = 2.46076e-011
vernier = 0.00808559
Gmin = 2.41766e-011
vernier = 0.0107808
vernier = 0.00539039
vernier = 0.00269519
vernier = 0.00359359
Gmin = 2.40251e-011
vernier = 0.00479145
Gmin = 2.37747e-011
vernier = 0.0063886
vernier = 0.00851814
Gmin = 2.33704e-011
vernier = 0.0113575
vernier = 0.00567876
vernier = 0.00283938
Gmin = 2.31559e-011
vernier = 0.00378584
vernier = 0.00504778
Gmin = 2.29216e-011
vernier = 0.00673037
vernier = 0.00897383
Gmin = 2.25553e-011
vernier = 0.0119651
vernier = 0.00598255
vernier = 0.00299128
Gmin = 2.22706e-011
vernier = 0.00398837
vernier = 0.00531782
Gmin = 2.2059e-011
vernier = 0.00709043
Gmin = 2.17197e-011
vernier = 0.0094539
vernier = 0.00472695
vernier = 0.00236347
vernier = 0.0031513
Gmin = 2.16003e-011
vernier = 0.00420173
Gmin = 2.14028e-011
vernier = 0.00560231
vernier = 0.00746974
Gmin = 2.10832e-011
vernier = 0.00995965
vernier = 0.00497983
vernier = 0.00248991
Gmin = 2.09134e-011
vernier = 0.00331988
vernier = 0.00442651
Gmin = 2.07277e-011
vernier = 0.00590201
vernier = 0.00786935
Gmin = 2.04369e-011
vernier = 0.0104925
vernier = 0.00524623
vernier = 0.00262311
Gmin = 2.02105e-011
vernier = 0.00349749
vernier = 0.00466331
Gmin = 2.0042e-011
vernier = 0.00621775
Gmin = 1.97714e-011
vernier = 0.00829033
vernier = 0.0110538
vernier = 0.00552688
vernier = 0.00276344
Gmin = 1.9497e-011
vernier = 0.00368459
Gmin = 1.93406e-011
vernier = 0.00491278
vernier = 0.00655038
Gmin = 1.9087e-011
vernier = 0.00873383
vernier = 0.00436692
vernier = 0.00218346
Gmin = 1.89522e-011
vernier = 0.00291128
vernier = 0.0038817
Gmin = 1.88045e-011
vernier = 0.0051756
vernier = 0.0069008
Gmin = 1.85729e-011
vernier = 0.00920106
vernier = 0.00460053
vernier = 0.00230027
Gmin = 1.83924e-011
vernier = 0.00306702
vernier = 0.00408936
Gmin = 1.82578e-011
vernier = 0.00545248
Gmin = 1.80414e-011
vernier = 0.00726997
vernier = 0.00969329
vernier = 0.00484665
vernier = 0.00242332
Gmin = 1.78217e-011
vernier = 0.0032311
Gmin = 1.76962e-011
vernier = 0.00430813
vernier = 0.00574417
Gmin = 1.74926e-011
vernier = 0.00765889
vernier = 0.00382944
Gmin = 1.72517e-011
vernier = 0.00191472
vernier = 0.00255296
Gmin = 1.71666e-011
vernier = 0.00340395
vernier = 0.0045386
Gmin = 1.70187e-011
vernier = 0.00605146
Gmin = 1.67888e-011
vernier = 0.00806861
vernier = 0.00403431
vernier = 0.00201715
vernier = 0.00268954
Gmin = 1.6724e-011
vernier = 0.00358605
Gmin = 1.65896e-011
vernier = 0.0047814
vernier = 0.00637519
Gmin = 1.63666e-011
vernier = 0.00850026
vernier = 0.00425013
vernier = 0.00212506
Gmin = 1.62713e-011
vernier = 0.00283342
vernier = 0.00377789
Gmin = 1.61412e-011
vernier = 0.00503719
vernier = 0.00671625
Gmin = 1.5936e-011
vernier = 0.00895499
vernier = 0.0044775
vernier = 0.00223875
Gmin = 1.58029e-011
vernier = 0.002985
vernier = 0.00397999
Gmin = 1.56835e-011
vernier = 0.00530666
Gmin = 1.54974e-011
vernier = 0.00707554
vernier = 0.00353777
vernier = 0.00176889
vernier = 0.00235851
Gmin = 1.5445e-011
vernier = 0.00314468
Gmin = 1.53361e-011
vernier = 0.00419291
vernier = 0.00559055
Gmin = 1.51551e-011
vernier = 0.00745406
vernier = 0.00372703
vernier = 0.00186351
Gmin = 1.50777e-011
vernier = 0.00248469
vernier = 0.00331291
Gmin = 1.4972e-011
vernier = 0.00441722
vernier = 0.00588962
Gmin = 1.48049e-011
vernier = 0.00785283
vernier = 0.00392641
vernier = 0.00196321
Gmin = 1.46964e-011
vernier = 0.00261761
vernier = 0.00349014
Gmin = 1.4599e-011
vernier = 0.00465352
Gmin = 1.4447e-011
vernier = 0.0062047
vernier = 0.00827293
vernier = 0.00413646
vernier = 0.00206823
Gmin = 1.43059e-011
vernier = 0.00275764
Gmin = 1.42174e-011
vernier = 0.00367685
vernier = 0.00490247
Gmin = 1.40701e-011
vernier = 0.00653663
vernier = 0.00326831
vernier = 0.00163416
Gmin = 1.40071e-011
vernier = 0.00217887
vernier = 0.00290517
Gmin = 1.39209e-011
vernier = 0.00387355
vernier = 0.00516474
Gmin = 1.37846e-011
vernier = 0.00688631
vernier = 0.00344316
vernier = 0.00172158
Gmin = 1.36959e-011
vernier = 0.00229544
vernier = 0.00306058
Gmin = 1.36163e-011
vernier = 0.00408078
Gmin = 1.34919e-011
vernier = 0.00544103
vernier = 0.00725471
vernier = 0.00362735
vernier = 0.00181368
Gmin = 1.33762e-011
vernier = 0.00241824
Gmin = 1.33037e-011
vernier = 0.00322431
vernier = 0.00429908
Gmin = 1.31827e-011
vernier = 0.00573211
vernier = 0.00764281
vernier = 0.00382141
Gmin = 1.30419e-011
vernier = 0.0019107
vernier = 0.0025476
Gmin = 1.29777e-011
vernier = 0.0033968
vernier = 0.00452907
Gmin = 1.28662e-011
vernier = 0.00603876
vernier = 0.00301938
vernier = 0.00150969
Gmin = 1.27936e-011
vernier = 0.00201292
vernier = 0.00268389
Gmin = 1.27283e-011
vernier = 0.00357852
Gmin = 1.26263e-011
vernier = 0.00477136
vernier = 0.00636181
vernier = 0.00318091
vernier = 0.00159045
Gmin = 1.25313e-011
vernier = 0.0021206
Gmin = 1.24717e-011
vernier = 0.00282747
vernier = 0.00376996
Gmin = 1.23722e-011
vernier = 0.00502661
vernier = 0.00670215
vernier = 0.00335107
Gmin = 1.22562e-011
vernier = 0.00167554
vernier = 0.00223405
Gmin = 1.22033e-011
vernier = 0.00297873
vernier = 0.00397164
Gmin = 1.21113e-011
vernier = 0.00529552
Gmin = 1.19679e-011
vernier = 0.00706069
vernier = 0.00353034
vernier = 0.00176517
vernier = 0.00235356
Gmin = 1.19275e-011
vernier = 0.00313808
Gmin = 1.18436e-011
vernier = 0.00418411
vernier = 0.00557881
vernier = 0.00278941
vernier = 0.0013947
Gmin = 1.17655e-011
vernier = 0.0018596
Gmin = 1.17164e-011
vernier = 0.00247947
vernier = 0.00330596
Gmin = 1.16344e-011
vernier = 0.00440794
vernier = 0.00587726
vernier = 0.00293863
Gmin = 1.15387e-011
vernier = 0.00146931
vernier = 0.00195909
Gmin = 1.1495e-011
vernier = 0.00261211
vernier = 0.00348282
Gmin = 1.14189e-011
vernier = 0.00464375
Gmin = 1.13003e-011
vernier = 0.00619167
vernier = 0.00309584
vernier = 0.00154792
vernier = 0.00206389
Gmin = 1.12668e-011
vernier = 0.00275185
Gmin = 1.11973e-011
vernier = 0.00366914
vernier = 0.00489218
Gmin = 1.10816e-011
vernier = 0.0065229
vernier = 0.00326145
vernier = 0.00163073
Gmin = 1.1032e-011
vernier = 0.0021743
vernier = 0.00289907
Gmin = 1.09643e-011
vernier = 0.00386542
vernier = 0.0051539
vernier = 0.00257695
Gmin = 1.08851e-011
vernier = 0.00128847
vernier = 0.00171796
Gmin = 1.0849e-011
vernier = 0.00229062
vernier = 0.00305416
Gmin = 1.0786e-011
vernier = 0.00407221
Gmin = 1.06877e-011
vernier = 0.00542961
vernier = 0.00271481
vernier = 0.0013574
vernier = 0.00180987
Gmin = 1.06599e-011
vernier = 0.00241316
Gmin = 1.06022e-011
vernier = 0.00321754
vernier = 0.00429006
Gmin = 1.0506e-011
vernier = 0.00572008
vernier = 0.00286004
vernier = 0.00143002
Gmin = 1.04648e-011
vernier = 0.00190669
vernier = 0.00254226
Gmin = 1.04084e-011
vernier = 0.00338967
vernier = 0.00451956
Gmin = 1.03192e-011
vernier = 0.00602608
vernier = 0.00301304
vernier = 0.00150652
Gmin = 1.02611e-011
vernier = 0.00200869
vernier = 0.00267826
Gmin = 1.02088e-011
vernier = 0.00357101
Gmin = 1.01272e-011
vernier = 0.00476134
vernier = 0.00634846
vernier = 0.00317423
vernier = 0.00158711
Gmin = 1.00512e-011
vernier = 0.00211615
Gmin = 1.00034e-011
vernier = 0.00282153
vernier = 0.00376205
Gmin = 9.92382e-012
vernier = 0.00501606
vernier = 0.00250803
vernier = 0.00125401
Gmin = 9.88966e-012
vernier = 0.00167202
vernier = 0.00222936
Gmin = 9.84293e-012
vernier = 0.00297248
vernier = 0.0039633
Gmin = 9.76888e-012
vernier = 0.0052844
vernier = 0.0026422
vernier = 0.0013211
Gmin = 9.72062e-012
vernier = 0.00176147
vernier = 0.00234862
Gmin = 9.67721e-012
vernier = 0.0031315
Gmin = 9.60929e-012
vernier = 0.00417533
vernier = 0.0055671
vernier = 0.00278355
vernier = 0.00139177
Gmin = 9.54601e-012
vernier = 0.0018557
Gmin = 9.50624e-012
vernier = 0.00247427
vernier = 0.00329902
Gmin = 9.43985e-012
vernier = 0.00439869
vernier = 0.00586492
vernier = 0.00293246
Gmin = 9.36236e-012
vernier = 0.00146623
vernier = 0.00195497
Gmin = 9.32697e-012
vernier = 0.00260663
vernier = 0.00347551
Gmin = 9.2654e-012
vernier = 0.00463401
vernier = 0.002317
vernier = 0.0011585
Gmin = 9.22525e-012
vernier = 0.00154467
vernier = 0.00205956
Gmin = 9.18911e-012
vernier = 0.00274608
Gmin = 9.13253e-012
vernier = 0.00366143
vernier = 0.00488191
vernier = 0.00244096
vernier = 0.00122048
Gmin = 9.07976e-012
vernier = 0.0016273
Gmin = 9.04658e-012
vernier = 0.00216974
vernier = 0.00289298
Gmin = 8.99116e-012
vernier = 0.00385731
vernier = 0.00514308
vernier = 0.00257154
Gmin = 8.92639e-012
vernier = 0.00128577
vernier = 0.00171436
Gmin = 8.8968e-012
vernier = 0.00228581
vernier = 0.00304775
Gmin = 8.84528e-012
vernier = 0.00406366
Gmin = 8.76481e-012
vernier = 0.00541821
vernier = 0.00270911
vernier = 0.00135455
vernier = 0.00180607
Gmin = 8.74209e-012
vernier = 0.00240809
Gmin = 8.69486e-012
vernier = 0.00321079
vernier = 0.00428105
vernier = 0.00214053
vernier = 0.00107026
Gmin = 8.65079e-012
vernier = 0.00142702
Gmin = 8.62306e-012
vernier = 0.00190269
vernier = 0.00253692
Gmin = 8.57671e-012
vernier = 0.00338256
vernier = 0.00451008
vernier = 0.00225504
Gmin = 8.52251e-012
vernier = 0.00112752
vernier = 0.00150336
Gmin = 8.49772e-012
vernier = 0.00200448
vernier = 0.00267264
Gmin = 8.45455e-012
vernier = 0.00356351
Gmin = 8.38706e-012
vernier = 0.00475135
vernier = 0.00237567
vernier = 0.00118784
vernier = 0.00158378
Gmin = 8.36799e-012
vernier = 0.00211171
Gmin = 8.32834e-012
vernier = 0.00281561
vernier = 0.00375415
Gmin = 8.26219e-012
vernier = 0.00500553
vernier = 0.00250276
vernier = 0.00125138
Gmin = 8.23381e-012
vernier = 0.00166851
vernier = 0.00222468
Gmin = 8.19499e-012
vernier = 0.00296624
vernier = 0.00395498
Gmin = 8.13346e-012
vernier = 0.00527331
vernier = 0.00263665
vernier = 0.00131833
Gmin = 8.09337e-012
vernier = 0.00175777
vernier = 0.00234369
Gmin = 8.0573e-012
vernier = 0.00312492
Gmin = 8.00087e-012
vernier = 0.00416656
vernier = 0.00208328
vernier = 0.00104164
vernier = 0.00138885
Gmin = 7.98491e-012
vernier = 0.0018518
Gmin = 7.95172e-012
vernier = 0.00246907
vernier = 0.00329209
Gmin = 7.89631e-012
vernier = 0.00438946
vernier = 0.00219473
vernier = 0.00109736
Gmin = 7.87252e-012
vernier = 0.00146315
vernier = 0.00195087
Gmin = 7.83996e-012
vernier = 0.00260116
vernier = 0.00346821
Gmin = 7.78831e-012
vernier = 0.00462428
vernier = 0.00231214
vernier = 0.00115607
Gmin = 7.75464e-012
vernier = 0.00154143
vernier = 0.00205523
Gmin = 7.72432e-012
vernier = 0.00274031
Gmin = 7.67686e-012
vernier = 0.00365375
vernier = 0.00487166
vernier = 0.00243583
vernier = 0.00121792
Gmin = 7.63259e-012
vernier = 0.00162389
Gmin = 7.60476e-012
vernier = 0.00216518
vernier = 0.00288691
Gmin = 7.55826e-012
vernier = 0.00384921
vernier = 0.00192461
vernier = 0.000962303
Gmin = 7.53829e-012
vernier = 0.00128307
vernier = 0.00171076
Gmin = 7.51094e-012
vernier = 0.00228101
vernier = 0.00304135
Gmin = 7.46754e-012
vernier = 0.00405513
vernier = 0.00202757
vernier = 0.00101378
Gmin = 7.43921e-012
vernier = 0.00135171
vernier = 0.00180228
Gmin = 7.4137e-012
vernier = 0.00240304
Gmin = 7.37374e-012
vernier = 0.00320405
vernier = 0.00427207
vernier = 0.00213603
vernier = 0.00106802
Gmin = 7.33644e-012
vernier = 0.00142402
Gmin = 7.31297e-012
vernier = 0.0018987
vernier = 0.00253159
Gmin = 7.27375e-012
vernier = 0.00337546
vernier = 0.00450061
vernier = 0.0022503
Gmin = 7.22788e-012
vernier = 0.00112515
vernier = 0.0015002
Gmin = 7.2069e-012
vernier = 0.00200027
vernier = 0.00266702
Gmin = 7.17037e-012
vernier = 0.00355603
Gmin = 7.11325e-012
vernier = 0.00474137
vernier = 0.00237069
vernier = 0.00118534
vernier = 0.00158046
Gmin = 7.09711e-012
vernier = 0.00210728
Gmin = 7.06354e-012
vernier = 0.0028097
vernier = 0.00374627
vernier = 0.00187313
vernier = 0.000936567
Gmin = 7.0322e-012
vernier = 0.00124876
Gmin = 7.01247e-012
vernier = 0.00166501
vernier = 0.00222001
Gmin = 6.97948e-012
vernier = 0.00296001
vernier = 0.00394668
vernier = 0.00197334
Gmin = 6.94086e-012
vernier = 0.00098667
vernier = 0.00131556
Gmin = 6.9232e-012
vernier = 0.00175408
vernier = 0.00233877
Gmin = 6.89241e-012
vernier = 0.00311836
Gmin = 6.84423e-012
vernier = 0.00415781
vernier = 0.00207891
vernier = 0.00103945
vernier = 0.00138594
Gmin = 6.83061e-012
vernier = 0.00184792
Gmin = 6.80228e-012
vernier = 0.00246389
vernier = 0.00328518
Gmin = 6.75497e-012
vernier = 0.00438024
vernier = 0.00219012
vernier = 0.00109506
Gmin = 6.73467e-012
vernier = 0.00146008
vernier = 0.00194677
Gmin = 6.70687e-012
vernier = 0.0025957
vernier = 0.00346093
Gmin = 6.66278e-012
vernier = 0.00461457
vernier = 0.00230729
vernier = 0.00115364
Gmin = 6.63403e-012
vernier = 0.00153819
vernier = 0.00205092
Gmin = 6.60815e-012
vernier = 0.00273456
Gmin = 6.56763e-012
vernier = 0.00364608
vernier = 0.00182304
vernier = 0.000911519
vernier = 0.00121536
Gmin = 6.55617e-012
vernier = 0.00162048
Gmin = 6.53231e-012
vernier = 0.00216064
vernier = 0.00288085
Gmin = 6.49246e-012
vernier = 0.00384113
vernier = 0.00192057
vernier = 0.000960283
Gmin = 6.47534e-012
vernier = 0.00128038
vernier = 0.00170717
Gmin = 6.45189e-012
vernier = 0.00227622
vernier = 0.00303496
Gmin = 6.41469e-012
vernier = 0.00404662
vernier = 0.00202331
vernier = 0.00101165
Gmin = 6.39041e-012
vernier = 0.00134887
vernier = 0.0017985
Gmin = 6.36854e-012
vernier = 0.00239799
Gmin = 6.33428e-012
vernier = 0.00319732
vernier = 0.0042631
vernier = 0.00213155
vernier = 0.00106577
Gmin = 6.3023e-012
vernier = 0.00142103
Gmin = 6.28219e-012
vernier = 0.00189471
vernier = 0.00252628
Gmin = 6.24856e-012
vernier = 0.00336837
vernier = 0.00168419
vernier = 0.000842093
Gmin = 6.23411e-012
vernier = 0.00112279
vernier = 0.00149705
Gmin = 6.21432e-012
vernier = 0.00199607
vernier = 0.00266143
Gmin = 6.18288e-012
vernier = 0.00354857
vernier = 0.00177428
vernier = 0.000887142
Gmin = 6.16235e-012
vernier = 0.00118286
vernier = 0.00157714
Gmin = 6.14385e-012
vernier = 0.00210285
Gmin = 6.11486e-012
vernier = 0.0028038
vernier = 0.0037384
vernier = 0.0018692
vernier = 0.000934601
Gmin = 6.08778e-012
vernier = 0.00124613
Gmin = 6.07074e-012
vernier = 0.00166151
vernier = 0.00221535
Gmin = 6.04223e-012
vernier = 0.0029538
vernier = 0.0039384
vernier = 0.0019692
Gmin = 6.00887e-012
vernier = 0.000984599
vernier = 0.0013128
Gmin = 5.99361e-012
vernier = 0.0017504
vernier = 0.00233386
Gmin = 5.96701e-012
vernier = 0.00311182
Gmin = 5.92539e-012
vernier = 0.00414909
vernier = 0.00207454
vernier = 0.00103727
vernier = 0.00138303
Gmin = 5.91363e-012
vernier = 0.00184404
Gmin = 5.88915e-012
vernier = 0.00245872
vernier = 0.00327829
vernier = 0.00163914
vernier = 0.000819572
Gmin = 5.86627e-012
vernier = 0.00109276
Gmin = 5.85187e-012
vernier = 0.00145702
vernier = 0.00194269
Gmin = 5.82777e-012
vernier = 0.00259025
vernier = 0.00345366
vernier = 0.00172683
Gmin = 5.79954e-012
vernier = 0.000863416
vernier = 0.00115122
Gmin = 5.78662e-012
vernier = 0.00153496
vernier = 0.00204661
Gmin = 5.76409e-012
vernier = 0.00272882
Gmin = 5.72882e-012
vernier = 0.00363842
vernier = 0.00181921
vernier = 0.000909606
vernier = 0.00121281
Gmin = 5.71884e-012
vernier = 0.00161708
Gmin = 5.69808e-012
vernier = 0.0021561
vernier = 0.0028748
Gmin = 5.66339e-012
vernier = 0.00383307
vernier = 0.00191653
vernier = 0.000958267
Gmin = 5.64848e-012
vernier = 0.00127769
vernier = 0.00170358
Gmin = 5.62808e-012
vernier = 0.00227145
vernier = 0.00302859
Gmin = 5.59569e-012
vernier = 0.00403812
vernier = 0.00201906
vernier = 0.00100953
Gmin = 5.57455e-012
vernier = 0.00134604
vernier = 0.00179472
Gmin = 5.55552e-012
vernier = 0.00239296
Gmin = 5.52569e-012
vernier = 0.00319061
vernier = 0.00159531
vernier = 0.000797653
vernier = 0.00106354
Gmin = 5.51725e-012
vernier = 0.00141805
Gmin = 5.49968e-012
vernier = 0.00189073
vernier = 0.00252098
Gmin = 5.4703e-012
vernier = 0.0033613
vernier = 0.00168065
vernier = 0.000840325
Gmin = 5.45768e-012
vernier = 0.00112043
vernier = 0.00149391
Gmin = 5.44038e-012
vernier = 0.00199188
vernier = 0.00265584
Gmin = 5.41292e-012
vernier = 0.00354112
vernier = 0.00177056
vernier = 0.00088528
Gmin = 5.39498e-012
vernier = 0.00118037
vernier = 0.00157383
Gmin = 5.37882e-012
vernier = 0.00209844
Gmin = 5.35349e-012
vernier = 0.00279792
vernier = 0.00373056
vernier = 0.00186528
vernier = 0.000932639
Gmin = 5.32984e-012
vernier = 0.00124352
Gmin = 5.31495e-012
vernier = 0.00165802
vernier = 0.0022107
Gmin = 5.29005e-012
vernier = 0.0029476
vernier = 0.00393013
vernier = 0.00196506
Gmin = 5.2609e-012
vernier = 0.000982532
vernier = 0.00131004
Gmin = 5.24756e-012
vernier = 0.00174672
vernier = 0.00232896
Gmin = 5.22432e-012
vernier = 0.00310528
vernier = 0.00155264
vernier = 0.000776321
Gmin = 5.20914e-012
vernier = 0.00103509
vernier = 0.00138013
Gmin = 5.19546e-012
vernier = 0.00184017
Gmin = 5.17399e-012
vernier = 0.00245355
vernier = 0.00327141
vernier = 0.0016357
vernier = 0.000817851
Gmin = 5.15394e-012
vernier = 0.00109047
Gmin = 5.14131e-012
vernier = 0.00145396
vernier = 0.00193861
Gmin = 5.12018e-012
vernier = 0.00258481
vernier = 0.00344641
vernier = 0.00172321
Gmin = 5.09543e-012
vernier = 0.000861604
vernier = 0.0011488
Gmin = 5.0841e-012
vernier = 0.00153174
vernier = 0.00204232
Gmin = 5.06435e-012
vernier = 0.00272309
Gmin = 5.03343e-012
vernier = 0.00363079
vernier = 0.00181539
vernier = 0.000907697
vernier = 0.00121026
Gmin = 5.02468e-012
vernier = 0.00161368
Gmin = 5.00647e-012
vernier = 0.00215158
vernier = 0.00286877
vernier = 0.00143438
vernier = 0.000717192
Gmin = 4.98945e-012
vernier = 0.000956255
Gmin = 4.97873e-012
vernier = 0.00127501
vernier = 0.00170001
Gmin = 4.96078e-012
vernier = 0.00226668
vernier = 0.00302224
vernier = 0.00151112
Gmin = 4.93975e-012
vernier = 0.000755559
vernier = 0.00100741
Gmin = 4.93012e-012
vernier = 0.00134322
vernier = 0.00179095
Gmin = 4.91332e-012
vernier = 0.00238794
Gmin = 4.887e-012
vernier = 0.00318392
vernier = 0.00159196
vernier = 0.000795979
vernier = 0.0010613
Gmin = 4.87955e-012
vernier = 0.00141507
Gmin = 4.86404e-012
vernier = 0.00188676
vernier = 0.00251568
Gmin = 4.83811e-012
vernier = 0.00335424
vernier = 0.00167712
vernier = 0.000838561
Gmin = 4.82697e-012
vernier = 0.00111808
vernier = 0.00149077
Gmin = 4.8117e-012
vernier = 0.0019877
vernier = 0.00265026
Gmin = 4.78746e-012
vernier = 0.00353368
vernier = 0.00176684
vernier = 0.000883421
Gmin = 4.77163e-012
vernier = 0.00117789
vernier = 0.00157053
Gmin = 4.75737e-012
vernier = 0.00209403
Gmin = 4.73502e-012
vernier = 0.00279204
vernier = 0.00139602
vernier = 0.000698011
vernier = 0.000930681
Gmin = 4.72869e-012
vernier = 0.00124091
Gmin = 4.7155e-012
vernier = 0.00165454
vernier = 0.00220606
Gmin = 4.69345e-012
vernier = 0.00294141
vernier = 0.0014707
vernier = 0.000735352
Gmin = 4.68397e-012
vernier = 0.00098047
vernier = 0.00130729
Gmin = 4.67098e-012
vernier = 0.00174306
vernier = 0.00232407
Gmin = 4.65034e-012
vernier = 0.00309876
vernier = 0.00154938
vernier = 0.000774691
Gmin = 4.63685e-012
vernier = 0.00103292
vernier = 0.00137723
Gmin = 4.6247e-012
vernier = 0.0018363
Gmin = 4.60563e-012
vernier = 0.0024484
vernier = 0.00326454
vernier = 0.00163227
vernier = 0.000816135
Gmin = 4.58782e-012
vernier = 0.00108818
Gmin = 4.5766e-012
vernier = 0.00145091
vernier = 0.00193454
Gmin = 4.55783e-012
vernier = 0.00257939
vernier = 0.00343918
vernier = 0.00171959
Gmin = 4.53585e-012
vernier = 0.000859795
vernier = 0.00114639
Gmin = 4.52578e-012
vernier = 0.00152852
vernier = 0.00203803
Gmin = 4.50824e-012
vernier = 0.00271737
vernier = 0.00135869
vernier = 0.000679344
Gmin = 4.49677e-012
vernier = 0.000905791
vernier = 0.00120772
Gmin = 4.48643e-012
vernier = 0.00161029
Gmin = 4.47021e-012
vernier = 0.00214706
vernier = 0.00286274
vernier = 0.00143137
vernier = 0.000715686
Gmin = 4.45504e-012
vernier = 0.000954248
Gmin = 4.44549e-012
vernier = 0.00127233
vernier = 0.00169644
Gmin = 4.42949e-012
vernier = 0.00226192
vernier = 0.00301589
vernier = 0.00150795
Gmin = 4.41075e-012
vernier = 0.000753973
vernier = 0.0010053
Gmin = 4.40217e-012
vernier = 0.0013404
vernier = 0.00178719
Gmin = 4.3872e-012
vernier = 0.00238292
Gmin = 4.36375e-012
vernier = 0.00317723
vernier = 0.00158862
vernier = 0.000794308
vernier = 0.00105908
Gmin = 4.35711e-012
vernier = 0.0014121
Gmin = 4.34329e-012
vernier = 0.0018828
vernier = 0.0025104
Gmin = 4.32019e-012
vernier = 0.0033472
vernier = 0.0016736
vernier = 0.000836801
Gmin = 4.31026e-012
vernier = 0.00111573
vernier = 0.00148765
Gmin = 4.29666e-012
vernier = 0.00198353
vernier = 0.0026447
vernier = 0.00132235
Gmin = 4.28071e-012
vernier = 0.000661175
vernier = 0.000881567
Gmin = 4.27341e-012
vernier = 0.00117542
vernier = 0.00156723
Gmin = 4.26066e-012
vernier = 0.00208964
Gmin = 4.24068e-012
vernier = 0.00278618
vernier = 0.00139309
vernier = 0.000696546
vernier = 0.000928728
Gmin = 4.23503e-012
vernier = 0.0012383
Gmin = 4.22324e-012
vernier = 0.00165107
vernier = 0.00220143
Gmin = 4.20354e-012
vernier = 0.00293523
vernier = 0.00146762
vernier = 0.000733809
Gmin = 4.19507e-012
vernier = 0.000978411
vernier = 0.00130455
Gmin = 4.18345e-012
vernier = 0.0017394
vernier = 0.0023192
Gmin = 4.165e-012
vernier = 0.00309226
vernier = 0.00154613
vernier = 0.000773065
Gmin = 4.15295e-012
vernier = 0.00103075
vernier = 0.00137434
Gmin = 4.14209e-012
vernier = 0.00183245
Gmin = 4.12505e-012
vernier = 0.00244326
vernier = 0.00325769
vernier = 0.00162884
vernier = 0.000814421
Gmin = 4.10912e-012
vernier = 0.00108589
Gmin = 4.0991e-012
vernier = 0.00144786
vernier = 0.00193048
Gmin = 4.08232e-012
vernier = 0.00257397
vernier = 0.00128699
vernier = 0.000643493
Gmin = 4.0751e-012
vernier = 0.00085799
vernier = 0.00114399
Gmin = 4.06521e-012
vernier = 0.00152532
vernier = 0.00203375
Gmin = 4.04948e-012
vernier = 0.00271167
vernier = 0.00135583
vernier = 0.000677917
Gmin = 4.03921e-012
vernier = 0.00090389
vernier = 0.00120519
Gmin = 4.02994e-012
vernier = 0.00160691
Gmin = 4.0154e-012
vernier = 0.00214255
vernier = 0.00285674
vernier = 0.00142837
vernier = 0.000714184
Gmin = 4.0018e-012
vernier = 0.000952245
Gmin = 3.99324e-012
vernier = 0.00126966
vernier = 0.00169288
Gmin = 3.9789e-012
vernier = 0.00225717
vernier = 0.00300956
vernier = 0.00150478
Gmin = 3.9621e-012
vernier = 0.00075239
vernier = 0.00100319
Gmin = 3.95441e-012
vernier = 0.00133758
vernier = 0.00178344
Gmin = 3.94099e-012
vernier = 0.00237792
Gmin = 3.91997e-012
vernier = 0.00317056
vernier = 0.00158528
vernier = 0.000792641
vernier = 0.00105685
Gmin = 3.91402e-012
vernier = 0.00140914
Gmin = 3.90163e-012
vernier = 0.00187885
vernier = 0.00250513
vernier = 0.00125257
vernier = 0.000626283
Gmin = 3.89004e-012
vernier = 0.000835044
Gmin = 3.88274e-012
vernier = 0.00111339
vernier = 0.00148452
Gmin = 3.87051e-012
vernier = 0.00197936
vernier = 0.00263915
vernier = 0.00131957
Gmin = 3.85618e-012
vernier = 0.000659787
vernier = 0.000879716
Gmin = 3.84961e-012
vernier = 0.00117295
vernier = 0.00156394
Gmin = 3.83815e-012
vernier = 0.00208525
Gmin = 3.82019e-012
vernier = 0.00278033
vernier = 0.00139017
vernier = 0.000695084
vernier = 0.000926778
Gmin = 3.81511e-012
vernier = 0.0012357
Gmin = 3.80452e-012
vernier = 0.0016476
vernier = 0.00219681
Gmin = 3.7868e-012
vernier = 0.00292907
vernier = 0.00146454
vernier = 0.000732268
Gmin = 3.77918e-012
vernier = 0.000976358
vernier = 0.00130181
Gmin = 3.76875e-012
vernier = 0.00173575
vernier = 0.00231433
Gmin = 3.75216e-012
vernier = 0.00308577
vernier = 0.00154288
vernier = 0.000771442
Gmin = 3.74132e-012
vernier = 0.00102859
vernier = 0.00137145
Gmin = 3.73156e-012
vernier = 0.0018286
Gmin = 3.71624e-012
vernier = 0.00243814
vernier = 0.00121907
vernier = 0.000609534
vernier = 0.000812712
Gmin = 3.7119e-012
vernier = 0.00108362
Gmin = 3.70286e-012
vernier = 0.00144482
vernier = 0.00192643
Gmin = 3.68774e-012
vernier = 0.00256857
vernier = 0.00128428
vernier = 0.000642142
Gmin = 3.68123e-012
vernier = 0.000856189
vernier = 0.00114159
Gmin = 3.67231e-012
vernier = 0.00152211
vernier = 0.00202948
Gmin = 3.65814e-012
vernier = 0.00270598
vernier = 0.00135299
vernier = 0.000676494
Gmin = 3.64887e-012
vernier = 0.000901992
vernier = 0.00120266
Gmin = 3.64052e-012
vernier = 0.00160354
Gmin = 3.62741e-012
vernier = 0.00213805
vernier = 0.00285074
vernier = 0.00142537
vernier = 0.000712685
Gmin = 3.61515e-012
vernier = 0.000950246
Gmin = 3.60743e-012
vernier = 0.00126699
vernier = 0.00168933
Gmin = 3.59451e-012
vernier = 0.00225243
vernier = 0.00300324
vernier = 0.00150162
Gmin = 3.57936e-012
vernier = 0.000750811
vernier = 0.00100108
Gmin = 3.57243e-012
vernier = 0.00133477
vernier = 0.0017797
Gmin = 3.56033e-012
vernier = 0.00237293
vernier = 0.00118647
vernier = 0.000593233
Gmin = 3.55242e-012
vernier = 0.000790977
vernier = 0.00105464
Gmin = 3.54529e-012
vernier = 0.00140618
Gmin = 3.53409e-012
vernier = 0.00187491
vernier = 0.00249987
vernier = 0.00124994
vernier = 0.000624969
Gmin = 3.52362e-012
vernier = 0.000833291
Gmin = 3.51702e-012
vernier = 0.00111105
vernier = 0.00148141
Gmin = 3.50596e-012
vernier = 0.00197521
vernier = 0.00263361
vernier = 0.0013168
Gmin = 3.49301e-012
vernier = 0.000658402
vernier = 0.00087787
Gmin = 3.48707e-012
vernier = 0.00117049
vernier = 0.00156066
Gmin = 3.47671e-012
vernier = 0.00208087
Gmin = 3.46048e-012
vernier = 0.0027745
vernier = 0.00138725
vernier = 0.000693625
vernier = 0.000924833
Gmin = 3.45588e-012
vernier = 0.00123311
Gmin = 3.44631e-012
vernier = 0.00164415
vernier = 0.00219219
Gmin = 3.43029e-012
vernier = 0.00292292
vernier = 0.00146146
vernier = 0.000730731
Gmin = 3.42341e-012
vernier = 0.000974308
vernier = 0.00129908
Gmin = 3.41397e-012
vernier = 0.0017321
vernier = 0.00230947
vernier = 0.00115473
Gmin = 3.40291e-012
vernier = 0.000577367
vernier = 0.000769823
Gmin = 3.39783e-012
vernier = 0.00102643
vernier = 0.00136857
Gmin = 3.38898e-012
vernier = 0.00182476
Gmin = 3.3751e-012
vernier = 0.00243302
vernier = 0.00121651
vernier = 0.000608254
vernier = 0.000811006
Gmin = 3.37117e-012
vernier = 0.00108134
Gmin = 3.36298e-012
vernier = 0.00144179
vernier = 0.00192238
Gmin = 3.34927e-012
vernier = 0.00256318
vernier = 0.00128159
vernier = 0.000640794
Gmin = 3.34337e-012
vernier = 0.000854392
vernier = 0.00113919
Gmin = 3.33529e-012
vernier = 0.00151892
vernier = 0.00202522
Gmin = 3.32244e-012
vernier = 0.0027003
vernier = 0.00135015
vernier = 0.000675074
Gmin = 3.31404e-012
vernier = 0.000900099
vernier = 0.00120013
Gmin = 3.30647e-012
vernier = 0.00160018
Gmin = 3.29459e-012
vernier = 0.00213357
vernier = 0.00284475
vernier = 0.00142238
vernier = 0.000711189
Gmin = 3.28348e-012
vernier = 0.000948251
Gmin = 3.27648e-012
vernier = 0.00126433
vernier = 0.00168578
Gmin = 3.26477e-012
vernier = 0.0022477
vernier = 0.00112385
vernier = 0.000561926
Gmin = 3.25973e-012
vernier = 0.000749235
vernier = 0.000998979
Gmin = 3.25282e-012
vernier = 0.00133197
vernier = 0.00177596
Gmin = 3.24183e-012
vernier = 0.00236795
vernier = 0.00118397
vernier = 0.000591987
Gmin = 3.23464e-012
vernier = 0.000789316
vernier = 0.00105242
Gmin = 3.22816e-012
vernier = 0.00140323
Gmin = 3.21798e-012
vernier = 0.00187097
vernier = 0.00249463
vernier = 0.00124731
vernier = 0.000623657
Gmin = 3.20847e-012
vernier = 0.000831542
Gmin = 3.20247e-012
vernier = 0.00110872
vernier = 0.0014783
Gmin = 3.19243e-012
vernier = 0.00197106
vernier = 0.00262808
vernier = 0.00131404
Gmin = 3.18065e-012
vernier = 0.00065702
vernier = 0.000876027
Gmin = 3.17526e-012
vernier = 0.00116804
vernier = 0.00155738
Gmin = 3.16585e-012
vernier = 0.00207651
Gmin = 3.15109e-012
vernier = 0.00276867
vernier = 0.00138434
vernier = 0.000692169
vernier = 0.000922891
Gmin = 3.14692e-012
vernier = 0.00123052
Gmin = 3.13822e-012
vernier = 0.00164069
vernier = 0.00218759
vernier = 0.0010938
vernier = 0.000546898
Gmin = 3.13008e-012
vernier = 0.000729197
Gmin = 3.12495e-012
vernier = 0.000972263
vernier = 0.00129635
Gmin = 3.11635e-012
vernier = 0.00172847
vernier = 0.00230462
vernier = 0.00115231
Gmin = 3.10627e-012
vernier = 0.000576155
vernier = 0.000768207
Gmin = 3.10165e-012
vernier = 0.00102428
vernier = 0.0013657
Gmin = 3.09359e-012
vernier = 0.00182093
Gmin = 3.08094e-012
vernier = 0.00242791
vernier = 0.00121396
vernier = 0.000606978
vernier = 0.000809303
Gmin = 3.07736e-012
vernier = 0.00107907
Gmin = 3.0699e-012
vernier = 0.00143876
vernier = 0.00191835
Gmin = 3.05741e-012
vernier = 0.0025578
vernier = 0.0012789
vernier = 0.000639449
Gmin = 3.05204e-012
vernier = 0.000852598
vernier = 0.0011368
Gmin = 3.04468e-012
vernier = 0.00151573
vernier = 0.00202097
Gmin = 3.03297e-012
vernier = 0.00269463
vernier = 0.00134731
vernier = 0.000673657
Gmin = 3.02532e-012
vernier = 0.000898209
vernier = 0.00119761
Gmin = 3.01842e-012
vernier = 0.00159682
Gmin = 3.0076e-012
vernier = 0.00212909
vernier = 0.00106454
vernier = 0.000532272
vernier = 0.000709696
Gmin = 3.00454e-012
vernier = 0.000946261
Gmin = 2.99815e-012
vernier = 0.00126168
vernier = 0.00168224
Gmin = 2.98745e-012
vernier = 0.00224299
vernier = 0.00112149
vernier = 0.000560747
Gmin = 2.98285e-012
vernier = 0.000747662
vernier = 0.000996882
Gmin = 2.97654e-012
vernier = 0.00132918
vernier = 0.00177223
Gmin = 2.9665e-012
vernier = 0.00236298
vernier = 0.00118149
vernier = 0.000590745
Gmin = 2.95993e-012
vernier = 0.000787659
vernier = 0.00105021
Gmin = 2.95402e-012
vernier = 0.00140028
Gmin = 2.94472e-012
vernier = 0.00186704
vernier = 0.00248939
vernier = 0.0012447
vernier = 0.000622348
Gmin = 2.93603e-012
vernier = 0.000829796
Gmin = 2.93056e-012
vernier = 0.0011064
vernier = 0.00147519
Gmin = 2.92139e-012
vernier = 0.00196692
vernier = 0.00262256
vernier = 0.00131128
Gmin = 2.91064e-012
vernier = 0.000655641
vernier = 0.000874188
Gmin = 2.90571e-012
vernier = 0.00116558
vernier = 0.00155411
Gmin = 2.89712e-012
vernier = 0.00207215
Gmin = 2.88364e-012
vernier = 0.00103607
vernier = 0.000518037
vernier = 0.000690716
Gmin = 2.88178e-012
vernier = 0.000920954
vernier = 0.00122794
Gmin = 2.87543e-012
vernier = 0.00163725
Gmin = 2.86515e-012
vernier = 0.002183
vernier = 0.0010915
vernier = 0.00054575
vernier = 0.000727667
Gmin = 2.8615e-012
vernier = 0.000970222
Gmin = 2.85544e-012
vernier = 0.00129363
vernier = 0.00172484
Gmin = 2.84553e-012
vernier = 0.00229978
vernier = 0.00114989
vernier = 0.000574946
Gmin = 2.84022e-012
vernier = 0.000766594
vernier = 0.00102213
Gmin = 2.83437e-012
vernier = 0.00136283
vernier = 0.00181711
Gmin = 2.82513e-012
vernier = 0.00242281
vernier = 0.00121141
vernier = 0.000605703
Gmin = 2.81787e-012
vernier = 0.000807604
vernier = 0.00107681
Gmin = 2.81243e-012
vernier = 0.00143574
Gmin = 2.80361e-012
vernier = 0.00191432
vernier = 0.00255243
vernier = 0.00127621
vernier = 0.000638107
Gmin = 2.79457e-012
vernier = 0.000850809
Gmin = 2.78937e-012
vernier = 0.00113441
vernier = 0.00151255
Gmin = 2.78088e-012
vernier = 0.00201673
vernier = 0.00268897
Gmin = 2.76748e-012
vernier = 0.00134449
vernier = 0.000672243
vernier = 0.000896324
Gmin = 2.76516e-012
vernier = 0.0011951
vernier = 0.00159346
Gmin = 2.75725e-012
vernier = 0.00212462
vernier = 0.00106231
vernier = 0.000531155
Gmin = 2.75104e-012
vernier = 0.000708206
vernier = 0.000944274
Gmin = 2.74637e-012
vernier = 0.00125903
Gmin = 2.73882e-012
vernier = 0.00167871
vernier = 0.00223828
vernier = 0.00111914
vernier = 0.00055957
Gmin = 2.73107e-012
vernier = 0.000746092
Gmin = 2.72662e-012
vernier = 0.00099479
vernier = 0.00132639
Gmin = 2.71934e-012
vernier = 0.00176851
vernier = 0.00235802
Gmin = 2.70785e-012
vernier = 0.00117901
vernier = 0.000589505
vernier = 0.000786006
Gmin = 2.70585e-012
vernier = 0.00104801
vernier = 0.00139734
Gmin = 2.69907e-012
vernier = 0.00186312
Gmin = 2.68809e-012
vernier = 0.00248416
vernier = 0.00124208
vernier = 0.000621041
vernier = 0.000828055
Gmin = 2.6842e-012
vernier = 0.00110407
Gmin = 2.67773e-012
vernier = 0.0014721
vernier = 0.00196279
Gmin = 2.66716e-012
vernier = 0.00261706
vernier = 0.00130853
vernier = 0.000654265
Gmin = 2.66149e-012
vernier = 0.000872353
vernier = 0.00116314
Gmin = 2.65526e-012
vernier = 0.00155085
vernier = 0.0020678
Gmin = 2.64541e-012
vernier = 0.0010339
vernier = 0.000516949
vernier = 0.000689266
Gmin = 2.6437e-012
vernier = 0.000919021
vernier = 0.00122536
Gmin = 2.63789e-012
vernier = 0.00163381
Gmin = 2.62848e-012
vernier = 0.00217842
vernier = 0.00108921
vernier = 0.000544604
vernier = 0.000726139
Gmin = 2.62514e-012
vernier = 0.000968185
Gmin = 2.61959e-012
vernier = 0.00129091
vernier = 0.00172122
Gmin = 2.61052e-012
vernier = 0.00229496
vernier = 0.00114748
vernier = 0.000573739
Gmin = 2.60566e-012
vernier = 0.000764985
vernier = 0.00101998
Gmin = 2.60031e-012
vernier = 0.00135997
vernier = 0.0018133
Gmin = 2.59185e-012
vernier = 0.00241773
vernier = 0.00120886
vernier = 0.000604432
Gmin = 2.5852e-012
vernier = 0.000805909
vernier = 0.00107455
Gmin = 2.58021e-012
vernier = 0.00143273
Gmin = 2.57214e-012
vernier = 0.0019103
vernier = 0.00254707
vernier = 0.00127353
vernier = 0.000636767
Gmin = 2.56387e-012
vernier = 0.000849023
Gmin = 2.55911e-012
vernier = 0.00113203
vernier = 0.00150937
Gmin = 2.55134e-012
vernier = 0.0020125
vernier = 0.00100625
vernier = 0.000503124
Gmin = 2.54717e-012
vernier = 0.000670832
vernier = 0.000894442
Gmin = 2.54258e-012
vernier = 0.00119259
vernier = 0.00159012
Gmin = 2.53533e-012
vernier = 0.00212016
vernier = 0.00106008
vernier = 0.00053004
Gmin = 2.52962e-012
vernier = 0.000706719
vernier = 0.000942292
Gmin = 2.52534e-012
vernier = 0.00125639
Gmin = 2.51841e-012
vernier = 0.00167519
vernier = 0.00223358
vernier = 0.00111679
vernier = 0.000558395
Gmin = 2.51131e-012
vernier = 0.000744526
Gmin = 2.50722e-012
vernier = 0.000992701
vernier = 0.0013236
Gmin = 2.50054e-012
vernier = 0.0017648
vernier = 0.00235307
Gmin = 2.48999e-012
vernier = 0.00117653
vernier = 0.000588267
vernier = 0.000784356
Gmin = 2.48816e-012
vernier = 0.00104581
vernier = 0.00139441
Gmin = 2.48194e-012
vernier = 0.00185921
Gmin = 2.47187e-012
vernier = 0.00247895
vernier = 0.00123947
vernier = 0.000619737
vernier = 0.000826316
Gmin = 2.46829e-012
vernier = 0.00110175
Gmin = 2.46235e-012
vernier = 0.00146901
vernier = 0.00195867
vernier = 0.000979337
vernier = 0.000489669
Gmin = 2.45626e-012
vernier = 0.000652891
Gmin = 2.45275e-012
vernier = 0.000870521
vernier = 0.0011607
Gmin = 2.44702e-012
vernier = 0.00154759
vernier = 0.00206346
Gmin = 2.43797e-012
vernier = 0.00103173
vernier = 0.000515864
vernier = 0.000687819
Gmin = 2.4364e-012
vernier = 0.000917091
vernier = 0.00122279
Gmin = 2.43105e-012
vernier = 0.00163038
Gmin = 2.4224e-012
vernier = 0.00217384
vernier = 0.00108692
vernier = 0.000543461
vernier = 0.000724615
Gmin = 2.41933e-012
vernier = 0.000966153
Gmin = 2.41422e-012
vernier = 0.0012882
vernier = 0.0017176
Gmin = 2.40588e-012
vernier = 0.00229014
vernier = 0.00114507
vernier = 0.000572535
Gmin = 2.40141e-012
vernier = 0.000763379
vernier = 0.00101784
Gmin = 2.39648e-012
vernier = 0.00135712
vernier = 0.00180949
Gmin = 2.38871e-012
vernier = 0.00241265
vernier = 0.00120633
vernier = 0.000603163
Gmin = 2.38259e-012
vernier = 0.000804217
vernier = 0.00107229
Gmin = 2.37801e-012
vernier = 0.00142972
Gmin = 2.37058e-012
vernier = 0.00190629
vernier = 0.000953146
vernier = 0.000476573
vernier = 0.00063543
Gmin = 2.36795e-012
vernier = 0.00084724
Gmin = 2.36356e-012
vernier = 0.00112965
vernier = 0.0015062
Gmin = 2.3564e-012
vernier = 0.00200827
vernier = 0.00100414
vernier = 0.000502068
Gmin = 2.35256e-012
vernier = 0.000669424
vernier = 0.000892565
Gmin = 2.34833e-012
vernier = 0.00119009
vernier = 0.00158678
Gmin = 2.34164e-012
vernier = 0.00211571
vernier = 0.00105785
vernier = 0.000528927
Gmin = 2.33639e-012
vernier = 0.000705236
vernier = 0.000940314
Gmin = 2.33244e-012
vernier = 0.00125375
Gmin = 2.32606e-012
vernier = 0.00167167
vernier = 0.00222889
vernier = 0.00111445
vernier = 0.000557223
Gmin = 2.31951e-012
vernier = 0.000742963
Gmin = 2.31574e-012
vernier = 0.000990618
vernier = 0.00132082
Gmin = 2.30958e-012
vernier = 0.0017611
vernier = 0.00234813
Gmin = 2.29986e-012
vernier = 0.00117406
vernier = 0.000587032
vernier = 0.000782709
Gmin = 2.29817e-012
vernier = 0.00104361
vernier = 0.00139148
Gmin = 2.29244e-012
vernier = 0.00185531
Gmin = 2.28315e-012
vernier = 0.00247375
vernier = 0.00123687
vernier = 0.000618436
vernier = 0.000824582
Gmin = 2.27986e-012
vernier = 0.00109944
Gmin = 2.27438e-012
vernier = 0.00146592
vernier = 0.00195456
vernier = 0.000977281
vernier = 0.000488641
Gmin = 2.26877e-012
vernier = 0.000651521
Gmin = 2.26554e-012
vernier = 0.000868694
vernier = 0.00115826
Gmin = 2.26025e-012
vernier = 0.00154434
vernier = 0.00205913
Gmin = 2.25191e-012
vernier = 0.00102956
vernier = 0.000514781
vernier = 0.000686375
Gmin = 2.25046e-012
vernier = 0.000915166
vernier = 0.00122022
Gmin = 2.24553e-012
vernier = 0.00162696
Gmin = 2.23755e-012
vernier = 0.00216928
vernier = 0.00108464
vernier = 0.00054232
vernier = 0.000723094
Gmin = 2.23472e-012
vernier = 0.000964125
Gmin = 2.23002e-012
vernier = 0.0012855
vernier = 0.001714
Gmin = 2.22233e-012
vernier = 0.00228533
vernier = 0.00114267
vernier = 0.000571333
Gmin = 2.21821e-012
vernier = 0.000761777
vernier = 0.0010157
Gmin = 2.21367e-012
vernier = 0.00135427
vernier = 0.00180569
Gmin = 2.2065e-012
vernier = 0.00240759
vernier = 0.00120379
vernier = 0.000601897
Gmin = 2.20086e-012
vernier = 0.000802529
vernier = 0.00107004
Gmin = 2.19664e-012
vernier = 0.00142672
Gmin = 2.18979e-012
vernier = 0.00190229
vernier = 0.000951145
vernier = 0.000475572
vernier = 0.000634097
Gmin = 2.18736e-012
vernier = 0.000845462
Gmin = 2.18332e-012
vernier = 0.00112728
vernier = 0.00150304
Gmin = 2.17672e-012
vernier = 0.00200406
vernier = 0.00100203
vernier = 0.000501014
Gmin = 2.17318e-012
vernier = 0.000668019
vernier = 0.000890691
Gmin = 2.16928e-012
vernier = 0.00118759
vernier = 0.00158345
Gmin = 2.16312e-012
vernier = 0.00211127
vernier = 0.00105563
vernier = 0.000527817
Gmin = 2.15827e-012
vernier = 0.000703755
vernier = 0.00093834
Gmin = 2.15464e-012
vernier = 0.00125112
Gmin = 2.14875e-012
vernier = 0.00166816
vernier = 0.00222421
vernier = 0.00111211
vernier = 0.000556053
Gmin = 2.14271e-012
vernier = 0.000741404
Gmin = 2.13924e-012
vernier = 0.000988538
vernier = 0.00131805
Gmin = 2.13356e-012
vernier = 0.0017574
vernier = 0.0023432
Gmin = 2.1246e-012
vernier = 0.0011716
vernier = 0.0005858
vernier = 0.000781066
Gmin = 2.12305e-012
vernier = 0.00104142
vernier = 0.00138856
Gmin = 2.11776e-012
vernier = 0.00185142
vernier = 0.000925708
vernier = 0.000462854
Gmin = 2.11359e-012
vernier = 0.000617138
vernier = 0.000822851
Gmin = 2.11047e-012
vernier = 0.00109713
Gmin = 2.10541e-012
vernier = 0.00146285
vernier = 0.00195046
vernier = 0.00097523
vernier = 0.000487615
Gmin = 2.10022e-012
vernier = 0.000650153
Gmin = 2.09724e-012
vernier = 0.000866871
vernier = 0.00115583
Gmin = 2.09236e-012
vernier = 0.0015411
vernier = 0.0020548
Gmin = 2.08465e-012
vernier = 0.0010274
vernier = 0.000513701
vernier = 0.000684934
Gmin = 2.08331e-012
vernier = 0.000913245
vernier = 0.00121766
Gmin = 2.07876e-012
vernier = 0.00162355
Gmin = 2.07139e-012
vernier = 0.00216473
vernier = 0.00108236
vernier = 0.000541182
vernier = 0.000721576
Gmin = 2.06878e-012
vernier = 0.000962101
Gmin = 2.06443e-012
vernier = 0.0012828
vernier = 0.0017104
Gmin = 2.05732e-012
vernier = 0.00228053
vernier = 0.00114027
vernier = 0.000570133
Gmin = 2.05352e-012
vernier = 0.000760178
vernier = 0.00101357
Gmin = 2.04933e-012
vernier = 0.00135143
vernier = 0.0018019
Gmin = 2.0427e-012
vernier = 0.000900951
vernier = 0.000450475
vernier = 0.000600634
Gmin = 2.04155e-012
vernier = 0.000800845
vernier = 0.00106779
Gmin = 2.03764e-012
vernier = 0.00142372
Gmin = 2.0313e-012
vernier = 0.0018983
vernier = 0.000949148
vernier = 0.000474574
vernier = 0.000632765
Gmin = 2.02906e-012
vernier = 0.000843687
Gmin = 2.02531e-012
vernier = 0.00112492
vernier = 0.00149989
Gmin = 2.0192e-012
vernier = 0.00199985
vernier = 0.000999925
vernier = 0.000499962
Gmin = 2.01592e-012
vernier = 0.000666616
vernier = 0.000888821
Gmin = 2.01232e-012
vernier = 0.00118509
vernier = 0.00158013
Gmin = 2.00661e-012
vernier = 0.00210683
vernier = 0.00105342
vernier = 0.000526709
Gmin = 2.00213e-012
vernier = 0.000702278
vernier = 0.00093637
Gmin = 1.99876e-012
vernier = 0.00124849
Gmin = 1.99331e-012
vernier = 0.00166466
vernier = 0.00221954
vernier = 0.00110977
vernier = 0.000554886
Gmin = 1.98772e-012
vernier = 0.000739847
Gmin = 1.9845e-012
vernier = 0.000986463
vernier = 0.00131528
Gmin = 1.97925e-012
vernier = 0.00175371
vernier = 0.00233828
Gmin = 1.97095e-012
vernier = 0.00116914
vernier = 0.00058457
vernier = 0.000779427
Gmin = 1.96951e-012
vernier = 0.00103924
vernier = 0.00138565
Gmin = 1.96462e-012
vernier = 0.00184753
vernier = 0.000923764
vernier = 0.000461882
Gmin = 1.96077e-012
vernier = 0.000615843
vernier = 0.000821124
Gmin = 1.95787e-012
vernier = 0.00109483
Gmin = 1.95319e-012
vernier = 0.00145977
vernier = 0.00194637
vernier = 0.000973183
vernier = 0.000486591
Gmin = 1.94839e-012
vernier = 0.000648788
Gmin = 1.94562e-012
vernier = 0.000865051
vernier = 0.0011534
Gmin = 1.94111e-012
vernier = 0.00153787
vernier = 0.00205049
Gmin = 1.93397e-012
vernier = 0.00102524
vernier = 0.000512622
vernier = 0.000683496
Gmin = 1.93273e-012
vernier = 0.000911328
vernier = 0.0012151
Gmin = 1.92852e-012
vernier = 0.00162014
Gmin = 1.92169e-012
vernier = 0.00216018
vernier = 0.00108009
vernier = 0.000540046
vernier = 0.000720061
Gmin = 1.91927e-012
vernier = 0.000960081
Gmin = 1.91525e-012
vernier = 0.00128011
vernier = 0.00170681
Gmin = 1.90867e-012
vernier = 0.00227575
vernier = 0.00113787
vernier = 0.000568937
Gmin = 1.90515e-012
vernier = 0.000758582
vernier = 0.00101144
Gmin = 1.90127e-012
vernier = 0.00134859
vernier = 0.00179812
Gmin = 1.89513e-012
vernier = 0.000899059
vernier = 0.00044953
vernier = 0.000599373
Gmin = 1.89407e-012
vernier = 0.000799163
vernier = 0.00106555
Gmin = 1.89045e-012
vernier = 0.00142073
Gmin = 1.88458e-012
vernier = 0.00189431
vernier = 0.000947156
vernier = 0.000473578
vernier = 0.000631437
Gmin = 1.8825e-012
vernier = 0.000841916
Gmin = 1.87904e-012
vernier = 0.00112255
vernier = 0.00149674
Gmin = 1.87338e-012
vernier = 0.00199565
vernier = 0.000997826
vernier = 0.000498913
Gmin = 1.87034e-012
vernier = 0.000665217
vernier = 0.000886956
Gmin = 1.867e-012
vernier = 0.00118261
vernier = 0.00157681
Gmin = 1.86172e-012
vernier = 0.00210241
vernier = 0.00105121
vernier = 0.000525603
Gmin = 1.85757e-012
vernier = 0.000700804
vernier = 0.000934405
Gmin = 1.85445e-012
vernier = 0.00124587
Gmin = 1.84941e-012
vernier = 0.00166116
vernier = 0.00221488
vernier = 0.00110744
vernier = 0.000553721
Gmin = 1.84423e-012
vernier = 0.000738294
Gmin = 1.84125e-012
vernier = 0.000984392
vernier = 0.00131252
Gmin = 1.83639e-012
vernier = 0.00175003
vernier = 0.000875015
vernier = 0.000437507
Gmin = 1.83378e-012
vernier = 0.000583343
vernier = 0.000777791
Gmin = 1.83091e-012
vernier = 0.00103705
vernier = 0.00138274
Gmin = 1.82637e-012
vernier = 0.00184365
vernier = 0.000921825
vernier = 0.000460913
Gmin = 1.82279e-012
vernier = 0.00061455
vernier = 0.0008194
Gmin = 1.82011e-012
vernier = 0.00109253
Gmin = 1.81577e-012
vernier = 0.00145671
vernier = 0.00194228
vernier = 0.00097114
vernier = 0.00048557
Gmin = 1.81131e-012
vernier = 0.000647426
Gmin = 1.80875e-012
vernier = 0.000863235
vernier = 0.00115098
Gmin = 1.80456e-012
vernier = 0.00153464
vernier = 0.00204619
Gmin = 1.79793e-012
vernier = 0.00102309
vernier = 0.000511546
vernier = 0.000682062
Gmin = 1.79678e-012
vernier = 0.000909415
vernier = 0.00121255
Gmin = 1.79287e-012
vernier = 0.00161674
Gmin = 1.78655e-012
vernier = 0.00215565
vernier = 0.00107782
vernier = 0.000538912
vernier = 0.000718549
Gmin = 1.7843e-012
vernier = 0.000958066
Gmin = 1.78057e-012
vernier = 0.00127742
vernier = 0.00170323
Gmin = 1.77446e-012
vernier = 0.00227097
vernier = 0.00113548
vernier = 0.000567742
Gmin = 1.77119e-012
vernier = 0.000756989
vernier = 0.00100932
Gmin = 1.76759e-012
vernier = 0.00134576
vernier = 0.00179434
Gmin = 1.76191e-012
vernier = 0.000897172
vernier = 0.000448586
vernier = 0.000598115
Gmin = 1.76092e-012
vernier = 0.000797486
vernier = 0.00106331
Gmin = 1.75756e-012
vernier = 0.00141775
Gmin = 1.75212e-012
vernier = 0.00189034
vernier = 0.000945168
vernier = 0.000472584
vernier = 0.000630112
Gmin = 1.75018e-012
vernier = 0.000840149
Gmin = 1.74697e-012
vernier = 0.0011202
vernier = 0.0014936
Gmin = 1.74172e-012
vernier = 0.00199146
vernier = 0.000995731
vernier = 0.000497865
Gmin = 1.73891e-012
vernier = 0.00066382
vernier = 0.000885094
Gmin = 1.73581e-012
vernier = 0.00118012
vernier = 0.0015735
Gmin = 1.73091e-012
vernier = 0.002098
vernier = 0.001049
vernier = 0.0005245
Gmin = 1.72705e-012
vernier = 0.000699333
vernier = 0.000932443
Gmin = 1.72416e-012
vernier = 0.00124326
Gmin = 1.71948e-012
vernier = 0.00165768
vernier = 0.00221023
vernier = 0.00110512
vernier = 0.000552559
Gmin = 1.71468e-012
vernier = 0.000736745
Gmin = 1.71192e-012
vernier = 0.000982326
vernier = 0.00130977
Gmin = 1.7074e-012
vernier = 0.00174636
vernier = 0.000873178
vernier = 0.000436589
Gmin = 1.70498e-012
vernier = 0.000582119
vernier = 0.000776158
Gmin = 1.70232e-012
vernier = 0.00103488
vernier = 0.00137984
Gmin = 1.6981e-012
vernier = 0.00183978
vernier = 0.00091989
vernier = 0.000459945
Gmin = 1.69479e-012
vernier = 0.00061326
vernier = 0.00081768
Gmin = 1.6923e-012
vernier = 0.00109024
Gmin = 1.68827e-012
vernier = 0.00145365
vernier = 0.0019382
vernier = 0.000969101
vernier = 0.000484551
Gmin = 1.68413e-012
vernier = 0.000646067
Gmin = 1.68175e-012
vernier = 0.000861423
vernier = 0.00114856
Gmin = 1.67787e-012
vernier = 0.00153142
vernier = 0.00204189
Gmin = 1.67172e-012
vernier = 0.00102094
vernier = 0.000510472
vernier = 0.00068063
Gmin = 1.67066e-012
vernier = 0.000907506
vernier = 0.00121001
Gmin = 1.66703e-012
vernier = 0.00161334
Gmin = 1.66116e-012
vernier = 0.00215112
vernier = 0.00107556
vernier = 0.000537781
vernier = 0.000717041
Gmin = 1.65907e-012
vernier = 0.000956055
Gmin = 1.65561e-012
vernier = 0.00127474
vernier = 0.00169965
vernier = 0.000849826
vernier = 0.000424913
Gmin = 1.65205e-012
vernier = 0.00056655
Gmin = 1.65e-012
vernier = 0.0007554
vernier = 0.0010072
Gmin = 1.64666e-012
vernier = 0.00134293
vernier = 0.00179058
Gmin = 1.64137e-012
vernier = 0.000895289
vernier = 0.000447644
vernier = 0.000596859
Gmin = 1.64045e-012
vernier = 0.000795812
vernier = 0.00106108
Gmin = 1.63733e-012
vernier = 0.00141478
Gmin = 1.63227e-012
vernier = 0.00188637
vernier = 0.000943184
vernier = 0.000471592
vernier = 0.000628789
Gmin = 1.63047e-012
vernier = 0.000838385
Gmin = 1.62749e-012
vernier = 0.00111785
vernier = 0.00149046
Gmin = 1.62261e-012
vernier = 0.00198728
vernier = 0.000993641
vernier = 0.00049682
Gmin = 1.61999e-012
vernier = 0.000662427
vernier = 0.000883236
Gmin = 1.61711e-012
vernier = 0.00117765
vernier = 0.0015702
Gmin = 1.61255e-012
vernier = 0.00209359
vernier = 0.0010468
vernier = 0.000523399
Gmin = 1.60897e-012
vernier = 0.000697865
vernier = 0.000930486
Gmin = 1.60628e-012
vernier = 0.00124065
Gmin = 1.60193e-012
vernier = 0.0016542
vernier = 0.00220559
vernier = 0.0011028
vernier = 0.000551399
Gmin = 1.59746e-012
vernier = 0.000735198
Gmin = 1.5949e-012
vernier = 0.000980264
vernier = 0.00130702
Gmin = 1.5907e-012
vernier = 0.00174269
vernier = 0.000871345
vernier = 0.000435673
Gmin = 1.58845e-012
vernier = 0.000580897
vernier = 0.000774529
Gmin = 1.58597e-012
vernier = 0.0010327
vernier = 0.00137694
Gmin = 1.58205e-012
vernier = 0.00183592
vernier = 0.000917959
vernier = 0.00045898
Gmin = 1.57897e-012
vernier = 0.000611973
vernier = 0.000815963
Gmin = 1.57666e-012
vernier = 0.00108795
Gmin = 1.57291e-012
vernier = 0.0014506
vernier = 0.00193413
vernier = 0.000967067
vernier = 0.000483533
Gmin = 1.56907e-012
vernier = 0.000644711
Gmin = 1.56686e-012
vernier = 0.000859615
vernier = 0.00114615
Gmin = 1.56324e-012
vernier = 0.0015282
vernier = 0.0020376
Gmin = 1.55753e-012
vernier = 0.0010188
vernier = 0.000509401
vernier = 0.000679201
Gmin = 1.55654e-012
vernier = 0.000905601
vernier = 0.00120747
Gmin = 1.55316e-012
vernier = 0.00160996
Gmin = 1.5477e-012
vernier = 0.00214661
vernier = 0.0010733
vernier = 0.000536652
vernier = 0.000715536
Gmin = 1.54577e-012
vernier = 0.000954048
Gmin = 1.54255e-012
vernier = 0.00127206
vernier = 0.00169608
vernier = 0.000848042
vernier = 0.000424021
Gmin = 1.53924e-012
vernier = 0.000565361
Gmin = 1.53734e-012
vernier = 0.000753815
vernier = 0.00100509
Gmin = 1.53422e-012
vernier = 0.00134011
vernier = 0.00178682
Gmin = 1.52931e-012
vernier = 0.000893409
vernier = 0.000446705
vernier = 0.000595606
Gmin = 1.52845e-012
vernier = 0.000794141
vernier = 0.00105885
Gmin = 1.52555e-012
vernier = 0.00141181
Gmin = 1.52085e-012
vernier = 0.00188241
vernier = 0.000941204
vernier = 0.000470602
vernier = 0.000627469
Gmin = 1.51918e-012
vernier = 0.000836625
Gmin = 1.5164e-012
vernier = 0.0011155
vernier = 0.00148733
Gmin = 1.51186e-012
vernier = 0.00198311
vernier = 0.000991555
vernier = 0.000495777
Gmin = 1.50943e-012
vernier = 0.000661036
vernier = 0.000881382
Gmin = 1.50675e-012
vernier = 0.00117518
vernier = 0.0015669
Gmin = 1.50251e-012
vernier = 0.0020892
vernier = 0.0010446
vernier = 0.0005223
Gmin = 1.49918e-012
vernier = 0.0006964
vernier = 0.000928533
Gmin = 1.49668e-012
vernier = 0.00123804
Gmin = 1.49263e-012
vernier = 0.00165072
vernier = 0.000825362
vernier = 0.000412681
vernier = 0.000550241
Gmin = 1.4912e-012
vernier = 0.000733655
Gmin = 1.48881e-012
vernier = 0.000978206
vernier = 0.00130427
Gmin = 1.4849e-012
vernier = 0.00173903
vernier = 0.000869516
vernier = 0.000434758
Gmin = 1.4828e-012
vernier = 0.000579677
vernier = 0.000772903
Gmin = 1.48049e-012
vernier = 0.00103054
vernier = 0.00137405
Gmin = 1.47684e-012
vernier = 0.00183206
vernier = 0.000916032
vernier = 0.000458016
Gmin = 1.47397e-012
vernier = 0.000610688
vernier = 0.00081425
Gmin = 1.47182e-012
vernier = 0.00108567
Gmin = 1.46833e-012
vernier = 0.00144756
vernier = 0.00193007
vernier = 0.000965037
vernier = 0.000482518
Gmin = 1.46475e-012
vernier = 0.000643358
Gmin = 1.46269e-012
vernier = 0.00085781
vernier = 0.00114375
Gmin = 1.45932e-012
vernier = 0.00152499
vernier = 0.00203333
Gmin = 1.454e-012
vernier = 0.00101666
vernier = 0.000508332
vernier = 0.000677775
Gmin = 1.45307e-012
vernier = 0.0009037
vernier = 0.00120493
Gmin = 1.44993e-012
vernier = 0.00160658
Gmin = 1.44484e-012
vernier = 0.0021421
vernier = 0.00107105
vernier = 0.000535526
vernier = 0.000714034
Gmin = 1.44304e-012
vernier = 0.000952045
Gmin = 1.44004e-012
vernier = 0.00126939
vernier = 0.00169252
vernier = 0.000846262
vernier = 0.000423131
Gmin = 1.43696e-012
vernier = 0.000564174
Gmin = 1.43519e-012
vernier = 0.000752232
vernier = 0.00100298
Gmin = 1.43229e-012
vernier = 0.0013373
vernier = 0.00178307
Gmin = 1.42771e-012
vernier = 0.000891534
vernier = 0.000445767
vernier = 0.000594356
Gmin = 1.42691e-012
vernier = 0.000792474
vernier = 0.00105663
Gmin = 1.42421e-012
vernier = 0.00140884
Gmin = 1.41982e-012
vernier = 0.00187846
vernier = 0.000939228
vernier = 0.000469614
vernier = 0.000626152
Gmin = 1.41827e-012
vernier = 0.000834869
Gmin = 1.41568e-012
vernier = 0.00111316
vernier = 0.00148421
Gmin = 1.41145e-012
vernier = 0.00197895
vernier = 0.000989473
vernier = 0.000494737
Gmin = 1.40919e-012
vernier = 0.000659649
vernier = 0.000879532
Gmin = 1.40669e-012
vernier = 0.00117271
vernier = 0.00156361
Gmin = 1.40274e-012
vernier = 0.00208481
vernier = 0.00104241
vernier = 0.000521203
Gmin = 1.39964e-012
vernier = 0.000694938
vernier = 0.000926584
Gmin = 1.39731e-012
vernier = 0.00123544
Gmin = 1.39354e-012
vernier = 0.00164726
vernier = 0.000823629
vernier = 0.000411815
vernier = 0.000549086
Gmin = 1.3922e-012
vernier = 0.000732115
Gmin = 1.38998e-012
vernier = 0.000976153
vernier = 0.00130154
Gmin = 1.38633e-012
vernier = 0.00173538
vernier = 0.000867691
vernier = 0.000433845
Gmin = 1.38438e-012
vernier = 0.00057846
vernier = 0.00077128
Gmin = 1.38223e-012
vernier = 0.00102837
vernier = 0.00137116
Gmin = 1.37883e-012
vernier = 0.00182822
vernier = 0.000914109
vernier = 0.000457055
Gmin = 1.37615e-012
vernier = 0.000609406
vernier = 0.000812541
Gmin = 1.37415e-012
vernier = 0.00108339
Gmin = 1.37089e-012
vernier = 0.00144452
vernier = 0.00192602
vernier = 0.000963011
vernier = 0.000481506
Gmin = 1.36756e-012
vernier = 0.000642007
Gmin = 1.36564e-012
vernier = 0.000856009
vernier = 0.00114135
Gmin = 1.3625e-012
vernier = 0.00152179
vernier = 0.00202906
Gmin = 1.35754e-012
vernier = 0.00101453
vernier = 0.000507264
vernier = 0.000676352
Gmin = 1.35668e-012
vernier = 0.000901803
vernier = 0.0012024
Gmin = 1.35375e-012
vernier = 0.0016032
Gmin = 1.34902e-012
vernier = 0.00213761
vernier = 0.0010688
vernier = 0.000534401
vernier = 0.000712535
Gmin = 1.34734e-012
vernier = 0.000950046
Gmin = 1.34454e-012
vernier = 0.00126673
vernier = 0.00168897
vernier = 0.000844485
vernier = 0.000422243
Gmin = 1.34167e-012
vernier = 0.00056299
Gmin = 1.34002e-012
vernier = 0.000750653
vernier = 0.00100087
Gmin = 1.33732e-012
vernier = 0.00133449
vernier = 0.00177932
Gmin = 1.33305e-012
vernier = 0.000889662
vernier = 0.000444831
vernier = 0.000593108
Gmin = 1.33231e-012
vernier = 0.000790811
vernier = 0.00105441
Gmin = 1.32979e-012
vernier = 0.00140588
Gmin = 1.3257e-012
vernier = 0.00187451
vernier = 0.000937256
vernier = 0.000468628
vernier = 0.000624837
Gmin = 1.32425e-012
vernier = 0.000833116
Gmin = 1.32184e-012
vernier = 0.00111082
vernier = 0.00148109
Gmin = 1.3179e-012
vernier = 0.00197479
vernier = 0.000987396
vernier = 0.000493698
Gmin = 1.31579e-012
vernier = 0.000658264
vernier = 0.000877685
Gmin = 1.31347e-012
vernier = 0.00117025
vernier = 0.00156033
Gmin = 1.30979e-012
vernier = 0.00208044
vernier = 0.00104022
vernier = 0.000520109
Gmin = 1.3069e-012
vernier = 0.000693479
vernier = 0.000924638
Gmin = 1.30473e-012
vernier = 0.00123285
Gmin = 1.30121e-012
vernier = 0.0016438
vernier = 0.0008219
vernier = 0.00041095
vernier = 0.000547933
Gmin = 1.29997e-012
vernier = 0.000730578
Gmin = 1.29789e-012
vernier = 0.000974104
vernier = 0.0012988
Gmin = 1.2945e-012
vernier = 0.00173174
vernier = 0.000865869
vernier = 0.000432935
Gmin = 1.29268e-012
vernier = 0.000577246
vernier = 0.000769661
Gmin = 1.29068e-012
vernier = 0.00102621
vernier = 0.00136829
Gmin = 1.28751e-012
vernier = 0.00182438
vernier = 0.00091219
vernier = 0.000456095
Gmin = 1.28501e-012
vernier = 0.000608127
vernier = 0.000810836
Gmin = 1.28314e-012
vernier = 0.00108111
Gmin = 1.28011e-012
vernier = 0.00144148
vernier = 0.00192198
vernier = 0.00096099
vernier = 0.000480495
Gmin = 1.277e-012
vernier = 0.00064066
Gmin = 1.27521e-012
vernier = 0.000854213
vernier = 0.00113895
Gmin = 1.27229e-012
vernier = 0.0015186
vernier = 0.0020248
Gmin = 1.26767e-012
vernier = 0.0010124
vernier = 0.0005062
vernier = 0.000674933
Gmin = 1.26687e-012
vernier = 0.00089991
vernier = 0.00119988
Gmin = 1.26414e-012
vernier = 0.00159984
Gmin = 1.25973e-012
vernier = 0.00213312
vernier = 0.00106656
vernier = 0.00053328
vernier = 0.000711039
Gmin = 1.25816e-012
vernier = 0.000948052
Gmin = 1.25555e-012
vernier = 0.00126407
vernier = 0.00168543
vernier = 0.000842713
vernier = 0.000421356
Gmin = 1.25288e-012
vernier = 0.000561808
Gmin = 1.25134e-012
vernier = 0.000749077
vernier = 0.00099877
Gmin = 1.24882e-012
vernier = 0.00133169
vernier = 0.00177559
Gmin = 1.24485e-012
vernier = 0.000887795
vernier = 0.000443897
vernier = 0.000591863
Gmin = 1.24415e-012
vernier = 0.000789151
vernier = 0.0010522
Gmin = 1.2418e-012
vernier = 0.00140293
Gmin = 1.238e-012
vernier = 0.00187058
vernier = 0.000935289
vernier = 0.000467644
vernier = 0.000623526
Gmin = 1.23665e-012
vernier = 0.000831367
Gmin = 1.2344e-012
vernier = 0.00110849
vernier = 0.00147799
Gmin = 1.23073e-012
vernier = 0.00197065
vernier = 0.000985324
vernier = 0.000492662
Gmin = 1.22876e-012
vernier = 0.000656882
vernier = 0.000875843
Gmin = 1.2266e-012
vernier = 0.00116779
vernier = 0.00155705
Gmin = 1.22317e-012
vernier = 0.00207607
vernier = 0.00103804
vernier = 0.000519018
Gmin = 1.22048e-012
vernier = 0.000692023
vernier = 0.000922697
Gmin = 1.21845e-012
vernier = 0.00123026
Gmin = 1.21518e-012
vernier = 0.00164035
vernier = 0.000820175
vernier = 0.000410088
vernier = 0.000546783
Gmin = 1.21402e-012
vernier = 0.000729044
Gmin = 1.21208e-012
vernier = 0.000972059
vernier = 0.00129608
Gmin = 1.20892e-012
vernier = 0.0017281
vernier = 0.000864052
vernier = 0.000432026
Gmin = 1.20722e-012
vernier = 0.000576034
vernier = 0.000768046
Gmin = 1.20536e-012
vernier = 0.00102406
vernier = 0.00136541
Gmin = 1.2024e-012
vernier = 0.00182055
vernier = 0.000910276
vernier = 0.000455138
Gmin = 1.20008e-012
vernier = 0.00060685
vernier = 0.000809133
Gmin = 1.19834e-012
vernier = 0.00107884
Gmin = 1.19551e-012
vernier = 0.00143846
vernier = 0.00191794
vernier = 0.000958972
vernier = 0.000479486
Gmin = 1.19262e-012
vernier = 0.000639315
Gmin = 1.19095e-012
vernier = 0.000852419
vernier = 0.00113656
Gmin = 1.18822e-012
vernier = 0.00151541
vernier = 0.00202055
Gmin = 1.18392e-012
vernier = 0.00101027
vernier = 0.000505137
vernier = 0.000673516
Gmin = 1.18317e-012
vernier = 0.000898021
vernier = 0.00119736
Gmin = 1.18063e-012
vernier = 0.00159648
vernier = 0.00079824
vernier = 0.00059868
Gmin = 1.17851e-012
vernier = 0.00079824
vernier = 0.00106432
Gmin = 1.17626e-012
vernier = 0.00141909
Gmin = 1.17261e-012
vernier = 0.00189212
vernier = 0.000946062
vernier = 0.000473031
vernier = 0.000630708
Gmin = 1.17132e-012
vernier = 0.000840943
Gmin = 1.16917e-012
vernier = 0.00112126
vernier = 0.00149501
Gmin = 1.16565e-012
vernier = 0.00199335
vernier = 0.000996673
vernier = 0.000498336
Gmin = 1.16376e-012
vernier = 0.000664448
vernier = 0.000885931
Gmin = 1.16169e-012
vernier = 0.00118124
vernier = 0.00157499
Gmin = 1.15841e-012
vernier = 0.00209998
vernier = 0.00104999
vernier = 0.000524996
Gmin = 1.15582e-012
vernier = 0.000699994
vernier = 0.000933325
Gmin = 1.15389e-012
vernier = 0.00124443
Gmin = 1.15075e-012
vernier = 0.00165924
vernier = 0.000829622
vernier = 0.000414811
vernier = 0.000553081
Gmin = 1.14964e-012
vernier = 0.000737441
Gmin = 1.14778e-012
vernier = 0.000983255
vernier = 0.00131101
Gmin = 1.14476e-012
vernier = 0.00174801
vernier = 0.000874004
vernier = 0.000437002
Gmin = 1.14313e-012
vernier = 0.000582669
vernier = 0.000776892
Gmin = 1.14134e-012
vernier = 0.00103586
vernier = 0.00138114
Gmin = 1.13851e-012
vernier = 0.00184152
vernier = 0.00092076
vernier = 0.00046038
Gmin = 1.13629e-012
vernier = 0.00061384
vernier = 0.000818453
Gmin = 1.13462e-012
vernier = 0.00109127
Gmin = 1.13191e-012
vernier = 0.00145503
vernier = 0.00194004
vernier = 0.000970018
vernier = 0.000485009
Gmin = 1.12914e-012
vernier = 0.000646678
Gmin = 1.12754e-012
vernier = 0.000862238
vernier = 0.00114965
Gmin = 1.12493e-012
vernier = 0.00153287
vernier = 0.00204382
Gmin = 1.12081e-012
vernier = 0.00102191
vernier = 0.000510955
vernier = 0.000681274
Gmin = 1.1201e-012
vernier = 0.000908365
vernier = 0.00121115
Gmin = 1.11766e-012
vernier = 0.00161487
vernier = 0.000807435
vernier = 0.000403717
Gmin = 1.11574e-012
vernier = 0.00053829
vernier = 0.000717719
Gmin = 1.11431e-012
vernier = 0.000956959
Gmin = 1.11198e-012
vernier = 0.00127594
vernier = 0.00170126
vernier = 0.00085063
vernier = 0.000425315
Gmin = 1.10959e-012
vernier = 0.000567086
Gmin = 1.10821e-012
vernier = 0.000756115
vernier = 0.00100815
Gmin = 1.10596e-012
vernier = 0.0013442
vernier = 0.00179227
Gmin = 1.10241e-012
vernier = 0.000896136
vernier = 0.000448068
vernier = 0.000597424
Gmin = 1.10179e-012
vernier = 0.000796565
vernier = 0.00106209
Gmin = 1.09969e-012
vernier = 0.00141611
Gmin = 1.09629e-012
vernier = 0.00188815
vernier = 0.000944076
vernier = 0.000472038
vernier = 0.000629384
Gmin = 1.09508e-012
vernier = 0.000839178
Gmin = 1.09307e-012
vernier = 0.0011189
vernier = 0.00149187
Gmin = 1.08979e-012
vernier = 0.00198916
vernier = 0.000994581
vernier = 0.00049729
Gmin = 1.08803e-012
vernier = 0.000663054
vernier = 0.000884071
Gmin = 1.08609e-012
vernier = 0.00117876
vernier = 0.00157168
Gmin = 1.08303e-012
vernier = 0.00209557
vernier = 0.00104779
vernier = 0.000523894
Gmin = 1.08062e-012
vernier = 0.000698525
vernier = 0.000931366
Gmin = 1.07882e-012
vernier = 0.00124182
Gmin = 1.07589e-012
vernier = 0.00165576
vernier = 0.000827881
vernier = 0.00041394
vernier = 0.00055192
Gmin = 1.07485e-012
vernier = 0.000735893
Gmin = 1.07312e-012
vernier = 0.000981191
vernier = 0.00130825
Gmin = 1.0703e-012
vernier = 0.00174434
vernier = 0.000872169
vernier = 0.000436085
Gmin = 1.06878e-012
vernier = 0.000581446
vernier = 0.000775261
Gmin = 1.06711e-012
vernier = 0.00103368
vernier = 0.00137824
Gmin = 1.06447e-012
vernier = 0.00183766
vernier = 0.000918828
vernier = 0.000459414
Gmin = 1.0624e-012
vernier = 0.000612552
vernier = 0.000816735
Gmin = 1.06084e-012
vernier = 0.00108898
Gmin = 1.05832e-012
vernier = 0.00145197
vernier = 0.00193596
vernier = 0.000967982
vernier = 0.000483991
Gmin = 1.05573e-012
vernier = 0.000645321
Gmin = 1.05424e-012
vernier = 0.000860428
vernier = 0.00114724
Gmin = 1.0518e-012
vernier = 0.00152965
vernier = 0.00203953
Gmin = 1.04796e-012
vernier = 0.00101977
vernier = 0.000509883
vernier = 0.000679843
Gmin = 1.04729e-012
vernier = 0.000906458
vernier = 0.00120861
Gmin = 1.04502e-012
vernier = 0.00161148
vernier = 0.00080574
vernier = 0.00040287
Gmin = 1.04323e-012
vernier = 0.00053716
vernier = 0.000716213
Gmin = 1.04189e-012
vernier = 0.00095495
Gmin = 1.03971e-012
vernier = 0.00127327
vernier = 0.00169769
vernier = 0.000848844
vernier = 0.000424422
Gmin = 1.03748e-012
vernier = 0.000565896
Gmin = 1.0362e-012
vernier = 0.000754528
vernier = 0.00100604
Gmin = 1.0341e-012
vernier = 0.00134138
vernier = 0.00178851
Gmin = 1.03078e-012
vernier = 0.000894254
vernier = 0.000447127
vernier = 0.000596169
Gmin = 1.03021e-012
vernier = 0.000794892
vernier = 0.00105986
Gmin = 1.02825e-012
vernier = 0.00141314
Gmin = 1.02507e-012
vernier = 0.00188419
vernier = 0.000942094
vernier = 0.000471047
vernier = 0.000628063
Gmin = 1.02395e-012
vernier = 0.000837417
Gmin = 1.02207e-012
vernier = 0.00111656
vernier = 0.00148874
Gmin = 1.01901e-012
vernier = 0.00198499
vernier = 0.000992493
vernier = 0.000496246
Gmin = 1.01737e-012
vernier = 0.000661662
vernier = 0.000882215
Gmin = 1.01556e-012
vernier = 0.00117629
vernier = 0.00156838
Gmin = 1.0127e-012
vernier = 0.00209118
vernier = 0.00104559
vernier = 0.000522794
Gmin = 1.01046e-012
vernier = 0.000697058
vernier = 0.000929411
Gmin = 1.00877e-012
vernier = 0.00123921
Gmin = 1.00604e-012
vernier = 0.00165229
vernier = 0.000826143
vernier = 0.000413071
vernier = 0.000550762
Gmin = 1.00507e-012
vernier = 0.000734349
Gmin = 1.00346e-012
vernier = 0.000979131
vernier = 0.00130551
Gmin = 1.00082e-012
vernier = 0.00174068
vernier = 0.000870339
vernier = 0.000435169
Gmin = 9.99408e-013
vernier = 0.000580226
vernier = 0.000773634
Gmin = 9.97851e-013
vernier = 0.00103151
vernier = 0.00137535
Gmin = 9.95388e-013
vernier = 0.0018338
vernier = 0.000916899
vernier = 0.000458449
Gmin = 9.93451e-013
vernier = 0.000611266
vernier = 0.000815021
Gmin = 9.91997e-013
vernier = 0.00108669
Gmin = 9.89642e-013
vernier = 0.00144892
vernier = 0.0019319
vernier = 0.00096595
vernier = 0.000482975
Gmin = 9.87226e-013
vernier = 0.000643966
Gmin = 9.85836e-013
vernier = 0.000858622
vernier = 0.00114483
Gmin = 9.83564e-013
vernier = 0.00152644
vernier = 0.00203525
Gmin = 9.79975e-013
vernier = 0.00101762
vernier = 0.000508812
vernier = 0.000678416
Gmin = 9.79352e-013
vernier = 0.000904555
vernier = 0.00120607
Gmin = 9.77232e-013
vernier = 0.0016081
vernier = 0.000804048
vernier = 0.000402024
Gmin = 9.75564e-013
vernier = 0.000536032
vernier = 0.000714709
Gmin = 9.74312e-013
vernier = 0.000952946
Gmin = 9.72283e-013
vernier = 0.00127059
vernier = 0.00169412
vernier = 0.000847062
vernier = 0.000423531
Gmin = 9.70201e-013
vernier = 0.000564708
Gmin = 9.69003e-013
vernier = 0.000752944
vernier = 0.00100392
Gmin = 9.67045e-013
vernier = 0.00133857
vernier = 0.00178475
Gmin = 9.63949e-013
vernier = 0.000892377
vernier = 0.000446189
vernier = 0.000594918
Gmin = 9.63411e-013
vernier = 0.000793224
vernier = 0.00105763
Gmin = 9.61582e-013
vernier = 0.00141017
Gmin = 9.58621e-013
vernier = 0.00188023
vernier = 0.000940116
vernier = 0.000470058
vernier = 0.000626744
Gmin = 9.5757e-013
vernier = 0.000835659
Gmin = 9.55822e-013
vernier = 0.00111421
vernier = 0.00148561
Gmin = 9.52964e-013
vernier = 0.00198082
vernier = 0.000990409
vernier = 0.000495205
Gmin = 9.51432e-013
vernier = 0.000660273
vernier = 0.000880364
Gmin = 9.49745e-013
vernier = 0.00117382
vernier = 0.00156509
Gmin = 9.47078e-013
vernier = 0.00208679
vernier = 0.00104339
vernier = 0.000521697
Gmin = 9.44981e-013
vernier = 0.000695595
vernier = 0.00092746
Gmin = 9.43408e-013
vernier = 0.00123661
Gmin = 9.4086e-013
vernier = 0.00164882
vernier = 0.000824408
vernier = 0.000412204
vernier = 0.000549606
Gmin = 9.39955e-013
vernier = 0.000732807
Gmin = 9.3845e-013
vernier = 0.000977076
vernier = 0.00130277
Gmin = 9.35989e-013
vernier = 0.00173702
vernier = 0.000868512
vernier = 0.000434256
Gmin = 9.34669e-013
vernier = 0.000579008
vernier = 0.00077201
Gmin = 9.33216e-013
vernier = 0.00102935
vernier = 0.00137246
Gmin = 9.30918e-013
vernier = 0.00182995
vernier = 0.000914974
vernier = 0.000457487
Gmin = 9.2911e-013
vernier = 0.000609983
vernier = 0.00081331
Gmin = 9.27753e-013
vernier = 0.00108441
Gmin = 9.25555e-013
vernier = 0.00144588
vernier = 0.00192784
vernier = 0.000963922
vernier = 0.000481961
Gmin = 9.233e-013
vernier = 0.000642615
Gmin = 9.22003e-013
vernier = 0.000856819
vernier = 0.00114243
Gmin = 9.19883e-013
vernier = 0.00152323
vernier = 0.00203098
Gmin = 9.16532e-013
vernier = 0.00101549
vernier = 0.000507744
vernier = 0.000676992
Gmin = 9.15951e-013
vernier = 0.000902656
vernier = 0.00120354
Gmin = 9.13972e-013
vernier = 0.00160472
vernier = 0.000802361
vernier = 0.00040118
Gmin = 9.12416e-013
vernier = 0.000534907
vernier = 0.000713209
Gmin = 9.11247e-013
vernier = 0.000950945
Gmin = 9.09354e-013
vernier = 0.00126793
vernier = 0.00169057
vernier = 0.000845284
vernier = 0.000422642
Gmin = 9.0741e-013
vernier = 0.000563523
Gmin = 9.06293e-013
vernier = 0.000751363
vernier = 0.00100182
Gmin = 9.04465e-013
vernier = 0.00133576
vernier = 0.00178101
Gmin = 9.01575e-013
vernier = 0.000890504
vernier = 0.000445252
vernier = 0.000593669
Gmin = 9.01074e-013
vernier = 0.000791559
vernier = 0.00105541
Gmin = 8.99366e-013
vernier = 0.00140721
Gmin = 8.96603e-013
vernier = 0.00187629
vernier = 0.000938143
vernier = 0.000469071
vernier = 0.000625428
Gmin = 8.95622e-013
vernier = 0.000833904
Gmin = 8.9399e-013
vernier = 0.00111187
vernier = 0.0014825
Gmin = 8.91323e-013
vernier = 0.00197666
vernier = 0.00098833
vernier = 0.000494165
Gmin = 8.89893e-013
vernier = 0.000658887
vernier = 0.000878515
Gmin = 8.88318e-013
vernier = 0.00117135
vernier = 0.0015618
Gmin = 8.85829e-013
vernier = 0.00208241
vernier = 0.0010412
vernier = 0.000520601
Gmin = 8.83872e-013
vernier = 0.000694135
vernier = 0.000925513
Gmin = 8.82403e-013
vernier = 0.00123402
Gmin = 8.80025e-013
vernier = 0.00164536
vernier = 0.000822678
vernier = 0.000411339
vernier = 0.000548452
Gmin = 8.79181e-013
vernier = 0.000731269
Gmin = 8.77776e-013
vernier = 0.000975025
vernier = 0.00130003
Gmin = 8.75479e-013
vernier = 0.00173338
vernier = 0.000866688
vernier = 0.000433344
Gmin = 8.74247e-013
vernier = 0.000577792
vernier = 0.000770389
Gmin = 8.72891e-013
vernier = 0.00102719
vernier = 0.00136958
Gmin = 8.70745e-013
vernier = 0.00182611
vernier = 0.000913053
vernier = 0.000456527
Gmin = 8.69058e-013
vernier = 0.000608702
vernier = 0.000811603
Gmin = 8.67791e-013
vernier = 0.00108214
Gmin = 8.6574e-013
vernier = 0.00144285
vernier = 0.0019238
vernier = 0.000961899
vernier = 0.000480949
Gmin = 8.63635e-013
vernier = 0.000641266
Gmin = 8.62424e-013
vernier = 0.000855021
vernier = 0.00114003
Gmin = 8.60445e-013
vernier = 0.00152004
vernier = 0.00202671
Gmin = 8.57318e-013
vernier = 0.00101336
vernier = 0.000506678
vernier = 0.000675571
Gmin = 8.56775e-013
vernier = 0.000900761
vernier = 0.00120101
Gmin = 8.54928e-013
vernier = 0.00160135
vernier = 0.000800676
vernier = 0.000400338
Gmin = 8.53475e-013
vernier = 0.000533784
vernier = 0.000711712
Gmin = 8.52384e-013
vernier = 0.000948949
Gmin = 8.50617e-013
vernier = 0.00126526
vernier = 0.00168702
vernier = 0.00084351
vernier = 0.000421755
Gmin = 8.48803e-013
vernier = 0.00056234
Gmin = 8.4776e-013
vernier = 0.000749786
vernier = 0.000999714
Gmin = 8.46053e-013
vernier = 0.00133295
vernier = 0.00177727
Gmin = 8.43356e-013
vernier = 0.000888635
vernier = 0.000444317
vernier = 0.000592423
Gmin = 8.42888e-013
vernier = 0.000789897
vernier = 0.0010532
Gmin = 8.41294e-013
vernier = 0.00140426
Gmin = 8.38714e-013
vernier = 0.00187235
vernier = 0.000936174
vernier = 0.000468087
vernier = 0.000624116
Gmin = 8.37799e-013
vernier = 0.000832154
Gmin = 8.36275e-013
vernier = 0.00110954
vernier = 0.00147938
Gmin = 8.33786e-013
vernier = 0.00197251
vernier = 0.000986256
vernier = 0.000493128
Gmin = 8.32451e-013
vernier = 0.000657504
vernier = 0.000876671
Gmin = 8.30981e-013
vernier = 0.00116889
vernier = 0.00155853
Gmin = 8.28658e-013
vernier = 0.00207803
vernier = 0.00103902
vernier = 0.000519509
Gmin = 8.2683e-013
vernier = 0.000692678
vernier = 0.00092357
Gmin = 8.25459e-013
vernier = 0.00123143
Gmin = 8.23239e-013
vernier = 0.0016419
vernier = 0.000820951
vernier = 0.000410475
vernier = 0.000547301
Gmin = 8.22451e-013
vernier = 0.000729734
Gmin = 8.21139e-013
vernier = 0.000972978
vernier = 0.0012973
Gmin = 8.18995e-013
vernier = 0.00172974
vernier = 0.000864869
vernier = 0.000432435
Gmin = 8.17845e-013
vernier = 0.000576579
vernier = 0.000768772
Gmin = 8.16579e-013
vernier = 0.00102503
vernier = 0.00136671
Gmin = 8.14576e-013
vernier = 0.00182227
vernier = 0.000911137
vernier = 0.000455568
Gmin = 8.13001e-013
vernier = 0.000607424
vernier = 0.000809899
Gmin = 8.11819e-013
vernier = 0.00107986
Gmin = 8.09904e-013
vernier = 0.00143982
vernier = 0.00191976
vernier = 0.000959879
vernier = 0.00047994
Gmin = 8.07939e-013
vernier = 0.000639919
Gmin = 8.06808e-013
vernier = 0.000853226
vernier = 0.00113763
Gmin = 8.04961e-013
vernier = 0.00151684
vernier = 0.00202246
Gmin = 8.02041e-013
vernier = 0.00101123
vernier = 0.000505615
vernier = 0.000674153
Gmin = 8.01535e-013
vernier = 0.00089887
vernier = 0.00119849
Gmin = 7.9981e-013
vernier = 0.00159799
Gmin = 7.9702e-013
vernier = 0.00213065
vernier = 0.00106533
vernier = 0.000532664
vernier = 0.000710218
Gmin = 7.9603e-013
vernier = 0.000946957
Gmin = 7.94383e-013
vernier = 0.00126261
vernier = 0.00168348
vernier = 0.000841739
vernier = 0.00042087
Gmin = 7.92693e-013
vernier = 0.000561159
Gmin = 7.9172e-013
vernier = 0.000748212
vernier = 0.000997616
Gmin = 7.9013e-013
vernier = 0.00133015
vernier = 0.00177354
Gmin = 7.87616e-013
vernier = 0.000886769
vernier = 0.000443385
vernier = 0.000591179
Gmin = 7.8718e-013
vernier = 0.000788239
vernier = 0.00105099
Gmin = 7.85695e-013
vernier = 0.00140131
Gmin = 7.8329e-013
vernier = 0.00186842
vernier = 0.000934208
vernier = 0.000467104
vernier = 0.000622805
Gmin = 7.82437e-013
vernier = 0.000830407
Gmin = 7.81017e-013
vernier = 0.00110721
vernier = 0.00147628
Gmin = 7.78697e-013
vernier = 0.00196837
vernier = 0.000984185
vernier = 0.000492093
Gmin = 7.77453e-013
vernier = 0.000656123
vernier = 0.000874831
Gmin = 7.76083e-013
vernier = 0.00116644
vernier = 0.00155525
Gmin = 7.73918e-013
vernier = 0.00207367
vernier = 0.00103684
vernier = 0.000518418
Gmin = 7.72215e-013
vernier = 0.000691224
vernier = 0.000921632
Gmin = 7.70937e-013
vernier = 0.00122884
Gmin = 7.68868e-013
vernier = 0.00163846
vernier = 0.000819228
vernier = 0.000409614
vernier = 0.000546152
Gmin = 7.68134e-013
vernier = 0.000728202
Gmin = 7.66911e-013
vernier = 0.000970936
vernier = 0.00129458
Gmin = 7.64913e-013
vernier = 0.00172611
vernier = 0.000863054
vernier = 0.000431527
Gmin = 7.63841e-013
vernier = 0.000575369
vernier = 0.000767158
Gmin = 7.62661e-013
vernier = 0.00102288
vernier = 0.00136384
Gmin = 7.60794e-013
vernier = 0.00181845
vernier = 0.000909224
vernier = 0.000454612
Gmin = 7.59326e-013
vernier = 0.000606149
vernier = 0.000808199
Gmin = 7.58224e-013
vernier = 0.0010776
Gmin = 7.56439e-013
vernier = 0.0014368
vernier = 0.00191573
vernier = 0.000957864
vernier = 0.000478932
Gmin = 7.54608e-013
vernier = 0.000638576
Gmin = 7.53554e-013
vernier = 0.000851435
vernier = 0.00113525
Gmin = 7.51832e-013
vernier = 0.00151366
vernier = 0.00201821
Gmin = 7.49111e-013
vernier = 0.00100911
vernier = 0.000504553
vernier = 0.000672738
Gmin = 7.48639e-013
vernier = 0.000896984
vernier = 0.00119598
Gmin = 7.47032e-013
vernier = 0.00159464
Gmin = 7.44431e-013
vernier = 0.00212618
vernier = 0.00106309
vernier = 0.000531545
vernier = 0.000708727
Gmin = 7.43508e-013
vernier = 0.000944969
Gmin = 7.41973e-013
vernier = 0.00125996
vernier = 0.00167994
vernier = 0.000839972
vernier = 0.000419986
Gmin = 7.40398e-013
vernier = 0.000559981
Gmin = 7.39491e-013
vernier = 0.000746641
vernier = 0.000995522
Gmin = 7.38009e-013
vernier = 0.00132736
vernier = 0.00176982
Gmin = 7.35666e-013
vernier = 0.000884908
vernier = 0.000442454
vernier = 0.000589938
Gmin = 7.35259e-013
vernier = 0.000786584
vernier = 0.00104878
Gmin = 7.33875e-013
vernier = 0.00139837
Gmin = 7.31634e-013
vernier = 0.00186449
vernier = 0.000932247
vernier = 0.000466124
vernier = 0.000621498
Gmin = 7.30839e-013
vernier = 0.000828664
Gmin = 7.29515e-013
vernier = 0.00110488
vernier = 0.00147318
Gmin = 7.27353e-013
vernier = 0.00196424
vernier = 0.000982119
vernier = 0.00049106
Gmin = 7.26193e-013
vernier = 0.000654746
vernier = 0.000872995
Gmin = 7.24916e-013
vernier = 0.00116399
vernier = 0.00155199
Gmin = 7.22898e-013
vernier = 0.00206932
vernier = 0.00103466
vernier = 0.00051733
Gmin = 7.21311e-013
vernier = 0.000689773
vernier = 0.000919697
Gmin = 7.2012e-013
vernier = 0.00122626
Gmin = 7.18191e-013
vernier = 0.00163502
vernier = 0.000817508
vernier = 0.000408754
vernier = 0.000545005
Gmin = 7.17506e-013
vernier = 0.000726673
Gmin = 7.16367e-013
vernier = 0.000968898
vernier = 0.00129186
Gmin = 7.14504e-013
vernier = 0.00172248
vernier = 0.000861242
vernier = 0.000430621
Gmin = 7.13505e-013
vernier = 0.000574161
vernier = 0.000765548
Gmin = 7.12405e-013
vernier = 0.00102073
vernier = 0.00136097
Gmin = 7.10665e-013
vernier = 0.00181463
vernier = 0.000907315
[...]
Source Step = 47.5379%
Source Step = 49.4318%
Source Step = 51.3258%
Source stepping aborted.
Starting source stepping with srcstepmethod=1
Could not converge to DC with sources off!
Pseudo Transient failed in finding the operating point at 5.065 s.
Direct Newton iteration failed to find .op point.  (Use ".option noopiter" to skip.)
Starting Gmin stepping
Gmin = 10
Gmin = 1.07374
Gmin = 0.115292
Gmin = 0.0123794
Gmin = 0.00132923
Gmin = 0.000142725
Gmin = 1.5325e-005
Gmin = 1.6455e-006
Gmin = 1.76685e-007
Gmin = 1.89714e-008
vernier = 0.5
vernier = 0.25
Gmin = 7.62172e-009
vernier = 0.333333
vernier = 0.444444
vernier = 0.222222
vernier = 0.111111
Gmin = 4.43763e-009
vernier = 0.148148
Gmin = 3.22615e-009
vernier = 0.197531
vernier = 0.263374
vernier = 0.131687
vernier = 0.0658435
Gmin = 2.32963e-009
vernier = 0.0877914
Gmin = 1.92615e-009
vernier = 0.117055
vernier = 0.156073
vernier = 0.0780367
Gmin = 1.52573e-009
vernier = 0.0390184
vernier = 0.0520245
Gmin = 1.38023e-009
vernier = 0.0693659
vernier = 0.0924879
Gmin = 1.15897e-009
vernier = 0.123317
vernier = 0.0616586
vernier = 0.0308293
Gmin = 1.03361e-009
vernier = 0.0411057
vernier = 0.0548076
Gmin = 9.31595e-010
vernier = 0.0730768
Gmin = 7.91426e-010
vernier = 0.0974357
vernier = 0.0487178
vernier = 0.0243589
vernier = 0.0324786
Gmin = 7.55444e-010
vernier = 0.0433047
Gmin = 6.85639e-010
vernier = 0.0577396
vernier = 0.0769862
vernier = 0.0384931
vernier = 0.0192465
Gmin = 6.26132e-010
vernier = 0.025662
Gmin = 5.91103e-010
vernier = 0.0342161
vernier = 0.0456214
Gmin = 5.36744e-010
vernier = 0.0608285
vernier = 0.0304143
vernier = 0.0152071
Gmin = 5.14845e-010
vernier = 0.0202762
vernier = 0.0270349
Gmin = 4.86183e-010
vernier = 0.0360465
vernier = 0.048062
vernier = 0.024031
Gmin = 4.5454e-010
vernier = 0.0120155
vernier = 0.0160207
Gmin = 4.40672e-010
vernier = 0.0213609
vernier = 0.0284812
Gmin = 4.17448e-010
vernier = 0.0379749
Gmin = 3.83403e-010
vernier = 0.0506331
vernier = 0.0253166
vernier = 0.0126583
vernier = 0.0168777
Gmin = 3.74229e-010
vernier = 0.0225036
Gmin = 3.55798e-010
vernier = 0.0300048
vernier = 0.0400064
vernier = 0.0200032
vernier = 0.0100016
Gmin = 3.39348e-010
vernier = 0.0133355
Gmin = 3.29333e-010
vernier = 0.0177806
vernier = 0.0237075
Gmin = 3.13193e-010
vernier = 0.03161
vernier = 0.015805
vernier = 0.00790249
Gmin = 3.06474e-010
vernier = 0.0105366
vernier = 0.0140489
Gmin = 2.97473e-010
vernier = 0.0187318
vernier = 0.0249757
Gmin = 2.83675e-010
vernier = 0.033301
vernier = 0.0166505
vernier = 0.00832524
Gmin = 2.74979e-010
vernier = 0.0111003
vernier = 0.0148004
Gmin = 2.6734e-010
vernier = 0.0197339
Gmin = 2.55755e-010
vernier = 0.0263119
vernier = 0.0131559
vernier = 0.00657796
vernier = 0.00877062
Gmin = 2.52554e-010
vernier = 0.0116942
Gmin = 2.46004e-010
vernier = 0.0155922
vernier = 0.0207896
Gmin = 2.35396e-010
vernier = 0.0277195
vernier = 0.0138597
vernier = 0.00692986
Gmin = 2.30961e-010
vernier = 0.00923982
vernier = 0.0123198
Gmin = 2.25e-010
vernier = 0.0164263
vernier = 0.0219018
vernier = 0.0109509
Gmin = 2.18189e-010
vernier = 0.00547544
vernier = 0.00730059
Gmin = 2.15127e-010
vernier = 0.00973411
vernier = 0.0129788
Gmin = 2.09877e-010
vernier = 0.0173051
Gmin = 2.01877e-010
vernier = 0.0230734
vernier = 0.0115367
vernier = 0.00576836
vernier = 0.00769114
Gmin = 1.9966e-010
vernier = 0.0102549
Gmin = 1.95111e-010
vernier = 0.0136731
vernier = 0.0182308
Gmin = 1.87711e-010
vernier = 0.0243078
vernier = 0.0121539
vernier = 0.00607695
Gmin = 1.84605e-010
vernier = 0.00810259
vernier = 0.0108035
Gmin = 1.8042e-010
vernier = 0.0144046
vernier = 0.0192061
vernier = 0.00960307
Gmin = 1.7562e-010
vernier = 0.00480153
vernier = 0.00640204
Gmin = 1.73457e-010
vernier = 0.00853606
vernier = 0.0113814
Gmin = 1.69738e-010
vernier = 0.0151752
Gmin = 1.6405e-010
vernier = 0.0202336
vernier = 0.0101168
vernier = 0.0050584
vernier = 0.00674453
Gmin = 1.62469e-010
vernier = 0.00899271
Gmin = 1.59218e-010
vernier = 0.0119903
vernier = 0.015987
vernier = 0.00799351
vernier = 0.00399676
Gmin = 1.56228e-010
vernier = 0.00532901
Gmin = 1.54367e-010
vernier = 0.00710534
vernier = 0.00947379
Gmin = 1.51293e-010
vernier = 0.0126317
vernier = 0.0168423
vernier = 0.00842114
Gmin = 1.47757e-010
vernier = 0.00421057
vernier = 0.00561409
Gmin = 1.4616e-010
vernier = 0.00748545
vernier = 0.0099806
Gmin = 1.43408e-010
vernier = 0.0133075
Gmin = 1.39184e-010
vernier = 0.0177433
vernier = 0.00887164
vernier = 0.00443582
vernier = 0.00591443
Gmin = 1.38007e-010
vernier = 0.0078859
Gmin = 1.35582e-010
vernier = 0.0105145
vernier = 0.0140194
vernier = 0.00700968
vernier = 0.00350484
Gmin = 1.33346e-010
vernier = 0.00467312
Gmin = 1.31952e-010
vernier = 0.00623083
vernier = 0.00830777
Gmin = 1.29645e-010
vernier = 0.011077
vernier = 0.0147694
vernier = 0.00738468
Gmin = 1.26984e-010
vernier = 0.00369234
vernier = 0.00492312
Gmin = 1.25779e-010
vernier = 0.00656416
vernier = 0.00875221
Gmin = 1.23699e-010
vernier = 0.0116696
Gmin = 1.20498e-010
vernier = 0.0155595
vernier = 0.00777973
vernier = 0.00388987
vernier = 0.00518649
Gmin = 1.19603e-010
vernier = 0.00691532
Gmin = 1.17758e-010
vernier = 0.00922042
vernier = 0.0122939
vernier = 0.00614694
vernier = 0.00307347
Gmin = 1.16054e-010
vernier = 0.00409796
Gmin = 1.14989e-010
vernier = 0.00546395
vernier = 0.00728526
Gmin = 1.13224e-010
vernier = 0.00971368
vernier = 0.0129516
vernier = 0.00647579
Gmin = 1.11183e-010
vernier = 0.00323789
vernier = 0.00431719
Gmin = 1.10257e-010
vernier = 0.00575625
vernier = 0.007675
Gmin = 1.08657e-010
vernier = 0.0102333
Gmin = 1.06186e-010
vernier = 0.0136444
vernier = 0.00682222
vernier = 0.00341111
vernier = 0.00454814
Gmin = 1.05495e-010
vernier = 0.00606419
Gmin = 1.04066e-010
vernier = 0.00808559
vernier = 0.0107808
vernier = 0.00539039
vernier = 0.00269519
Gmin = 1.02744e-010
vernier = 0.00359359
Gmin = 1.01917e-010
vernier = 0.00479145
vernier = 0.0063886
Gmin = 1.00543e-010
vernier = 0.00851814
vernier = 0.0113575
vernier = 0.00567876
Gmin = 9.89518e-011
vernier = 0.00283938
vernier = 0.00378584
Gmin = 9.8229e-011
vernier = 0.00504778
vernier = 0.00673037
Gmin = 9.69776e-011
vernier = 0.00897383
Gmin = 9.50411e-011
vernier = 0.0119651
vernier = 0.00598255
vernier = 0.00299128
vernier = 0.00398837
Gmin = 9.4498e-011
vernier = 0.00531782
Gmin = 9.33747e-011
vernier = 0.00709043
vernier = 0.0094539
vernier = 0.00472695
vernier = 0.00236347
Gmin = 9.23332e-011
vernier = 0.0031513
Gmin = 9.16811e-011
vernier = 0.00420173
vernier = 0.00560231
Gmin = 9.05967e-011
vernier = 0.00746974
vernier = 0.00995965
vernier = 0.00497983
Gmin = 8.93378e-011
vernier = 0.00248991
vernier = 0.00331988
Gmin = 8.87652e-011
vernier = 0.00442651
vernier = 0.00590201
Gmin = 8.77727e-011
vernier = 0.00786935
Gmin = 8.62337e-011
vernier = 0.0104925
vernier = 0.00524623
vernier = 0.00262311
vernier = 0.00349749
Gmin = 8.58014e-011
vernier = 0.00466331
Gmin = 8.49063e-011
vernier = 0.00621775
vernier = 0.00829033
Gmin = 8.34249e-011
vernier = 0.0110538
vernier = 0.00552688
vernier = 0.00276344
Gmin = 8.27938e-011
vernier = 0.00368459
vernier = 0.00491278
Gmin = 8.19344e-011
vernier = 0.00655038
vernier = 0.00873383
vernier = 0.00436692
Gmin = 8.0935e-011
vernier = 0.00218346
vernier = 0.00291128
Gmin = 8.04799e-011
vernier = 0.0038817
vernier = 0.0051756
Gmin = 7.96902e-011
vernier = 0.0069008
Gmin = 7.84634e-011
vernier = 0.00920106
vernier = 0.00460053
vernier = 0.00230027
vernier = 0.00306702
Gmin = 7.81183e-011
vernier = 0.00408936
Gmin = 7.74032e-011
vernier = 0.00545248
vernier = 0.00726997
Gmin = 7.62175e-011
vernier = 0.00969329
vernier = 0.00484665
vernier = 0.00242332
Gmin = 7.57116e-011
vernier = 0.0032311
vernier = 0.00430813
Gmin = 7.5022e-011
vernier = 0.00574417
vernier = 0.00765889
vernier = 0.00382944
Gmin = 7.42188e-011
vernier = 0.00191472
vernier = 0.00255296
Gmin = 7.38527e-011
vernier = 0.00340395
vernier = 0.0045386
Gmin = 7.32168e-011
vernier = 0.00605146
Gmin = 7.22274e-011
vernier = 0.00806861
vernier = 0.00403431
vernier = 0.00201715
vernier = 0.00268954
Gmin = 7.19487e-011
vernier = 0.00358605
Gmin = 7.13708e-011
vernier = 0.0047814
vernier = 0.00637519
Gmin = 7.04111e-011
vernier = 0.00850026
vernier = 0.00425013
vernier = 0.00212506
Gmin = 7.0001e-011
vernier = 0.00283342
vernier = 0.00377789
Gmin = 6.94415e-011
vernier = 0.00503719
vernier = 0.00671625
Gmin = 6.85587e-011
vernier = 0.00895499
vernier = 0.0044775
vernier = 0.00223875
Gmin = 6.7986e-011
vernier = 0.002985
vernier = 0.00397999
Gmin = 6.74723e-011
vernier = 0.00530666
Gmin = 6.6672e-011
vernier = 0.00707554
vernier = 0.00353777
vernier = 0.00176889
vernier = 0.00235851
Gmin = 6.64464e-011
vernier = 0.00314468
Gmin = 6.59781e-011
vernier = 0.00419291
vernier = 0.00559055
Gmin = 6.51994e-011
vernier = 0.00745406
vernier = 0.00372703
vernier = 0.00186351
Gmin = 6.48662e-011
vernier = 0.00248469
vernier = 0.00331291
Gmin = 6.44114e-011
vernier = 0.00441722
vernier = 0.00588962
Gmin = 6.36927e-011
vernier = 0.00785283
vernier = 0.00392641
vernier = 0.00196321
Gmin = 6.32258e-011
vernier = 0.00261761
vernier = 0.00349014
Gmin = 6.28067e-011
vernier = 0.00465352
Gmin = 6.21528e-011
vernier = 0.0062047
vernier = 0.00827293
vernier = 0.00413646
vernier = 0.00206823
Gmin = 6.15457e-011
vernier = 0.00275764
Gmin = 6.11651e-011
vernier = 0.00367685
vernier = 0.00490247
Gmin = 6.05316e-011
vernier = 0.00653663
vernier = 0.00326831
vernier = 0.00163416
Gmin = 6.02603e-011
vernier = 0.00217887
vernier = 0.00290517
Gmin = 5.98895e-011
vernier = 0.00387355
vernier = 0.00516474
Gmin = 5.93031e-011
vernier = 0.00688631
vernier = 0.00344316
vernier = 0.00172158
Gmin = 5.89216e-011
vernier = 0.00229544
vernier = 0.00306058
Gmin = 5.8579e-011
vernier = 0.00408078
Gmin = 5.80438e-011
vernier = 0.00544103
vernier = 0.00725471
vernier = 0.00362735
vernier = 0.00181368
Gmin = 5.75463e-011
vernier = 0.00241824
Gmin = 5.72341e-011
vernier = 0.00322431
vernier = 0.00429908
Gmin = 5.67139e-011
vernier = 0.00573211
vernier = 0.00764281
vernier = 0.00382141
Gmin = 5.6108e-011
vernier = 0.0019107
vernier = 0.0025476
Gmin = 5.58318e-011
vernier = 0.0033968
vernier = 0.00452907
Gmin = 5.53521e-011
vernier = 0.00603876
vernier = 0.00301938
vernier = 0.00150969
Gmin = 5.50397e-011
vernier = 0.00201292
vernier = 0.00268389
Gmin = 5.47589e-011
vernier = 0.00357852
Gmin = 5.432e-011
vernier = 0.00477136
vernier = 0.00636181
vernier = 0.00318091
vernier = 0.00159045
Gmin = 5.39114e-011
vernier = 0.0021206
Gmin = 5.36548e-011
vernier = 0.00282747
vernier = 0.00376996
Gmin = 5.32269e-011
vernier = 0.00502661
vernier = 0.00670215
vernier = 0.00335107
Gmin = 5.27279e-011
vernier = 0.00167554
vernier = 0.00223405
Gmin = 5.25002e-011
vernier = 0.00297873
vernier = 0.00397164
Gmin = 5.21044e-011
vernier = 0.00529552
Gmin = 5.14876e-011
vernier = 0.00706069
vernier = 0.00353034
vernier = 0.00176517
vernier = 0.00235356
Gmin = 5.13138e-011
vernier = 0.00313808
Gmin = 5.09529e-011
vernier = 0.00418411
vernier = 0.00557881
vernier = 0.00278941
vernier = 0.0013947
Gmin = 5.06166e-011
vernier = 0.0018596
Gmin = 5.04053e-011
vernier = 0.00247947
vernier = 0.00330596
Gmin = 5.00525e-011
vernier = 0.00440794
vernier = 0.00587726
vernier = 0.00293863
Gmin = 4.96408e-011
vernier = 0.00146931
vernier = 0.00195909
Gmin = 4.94528e-011
vernier = 0.00261211
vernier = 0.00348282
Gmin = 4.91256e-011
vernier = 0.00464375
Gmin = 4.86153e-011
vernier = 0.00619167
vernier = 0.00309584
vernier = 0.00154792
vernier = 0.00206389
Gmin = 4.84713e-011
vernier = 0.00275185
Gmin = 4.81722e-011
vernier = 0.00366914
vernier = 0.00489218
Gmin = 4.76743e-011
vernier = 0.0065229
vernier = 0.00326145
vernier = 0.00163073
Gmin = 4.7461e-011
vernier = 0.0021743
vernier = 0.00289907
Gmin = 4.71697e-011
vernier = 0.00386542
vernier = 0.0051539
vernier = 0.00257695
Gmin = 4.68292e-011
vernier = 0.00128847
vernier = 0.00171796
Gmin = 4.66736e-011
vernier = 0.00229062
vernier = 0.00305416
Gmin = 4.64027e-011
vernier = 0.00407221
Gmin = 4.59797e-011
vernier = 0.00542961
vernier = 0.00271481
vernier = 0.0013574
vernier = 0.00180987
Gmin = 4.58603e-011
vernier = 0.00241316
Gmin = 4.5612e-011
vernier = 0.00321754
vernier = 0.00429006
Gmin = 4.51983e-011
vernier = 0.00572008
vernier = 0.00286004
vernier = 0.00143002
Gmin = 4.50209e-011
vernier = 0.00190669
vernier = 0.00254226
Gmin = 4.47784e-011
vernier = 0.00338967
vernier = 0.00451956
Gmin = 4.43945e-011
vernier = 0.00602608
vernier = 0.00301304
vernier = 0.00150652
Gmin = 4.41445e-011
vernier = 0.00200869
vernier = 0.00267826
Gmin = 4.39198e-011
vernier = 0.00357101
Gmin = 4.35684e-011
vernier = 0.00476134
vernier = 0.00238067
vernier = 0.00119034
vernier = 0.00158711
Gmin = 4.34692e-011
vernier = 0.00211615
Gmin = 4.32627e-011
vernier = 0.00282153
vernier = 0.00376205
Gmin = 4.29184e-011
vernier = 0.00501606
vernier = 0.00250803
vernier = 0.00125401
Gmin = 4.27707e-011
vernier = 0.00167202
vernier = 0.00222936
Gmin = 4.25686e-011
vernier = 0.00297248
vernier = 0.0039633
Gmin = 4.22483e-011
vernier = 0.0052844
vernier = 0.0026422
vernier = 0.0013211
Gmin = 4.20396e-011
vernier = 0.00176147
vernier = 0.00234862
Gmin = 4.18519e-011
vernier = 0.0031315
Gmin = 4.15581e-011
vernier = 0.00417533
vernier = 0.0055671
vernier = 0.00278355
vernier = 0.00139177
Gmin = 4.12844e-011
vernier = 0.0018557
Gmin = 4.11125e-011
vernier = 0.00247427
vernier = 0.00329902
Gmin = 4.08254e-011
vernier = 0.00439869
vernier = 0.00219935
vernier = 0.00109967
Gmin = 4.07021e-011
vernier = 0.00146623
vernier = 0.00195497
Gmin = 4.05334e-011
vernier = 0.00260663
vernier = 0.00347551
Gmin = 4.02659e-011
vernier = 0.00463401
vernier = 0.002317
vernier = 0.0011585
Gmin = 4.00914e-011
vernier = 0.00154467
vernier = 0.00205956
Gmin = 3.99343e-011
vernier = 0.00274608
Gmin = 3.96884e-011
vernier = 0.00366143
vernier = 0.00488191
vernier = 0.00244096
vernier = 0.00122048
Gmin = 3.94591e-011
vernier = 0.0016273
Gmin = 3.93149e-011
vernier = 0.00216974
vernier = 0.00289298
Gmin = 3.9074e-011
vernier = 0.00385731
vernier = 0.00514308
vernier = 0.00257154
Gmin = 3.87926e-011
vernier = 0.00128577
vernier = 0.00171436
Gmin = 3.8664e-011
vernier = 0.00228581
vernier = 0.00304775
Gmin = 3.844e-011
vernier = 0.00406366
vernier = 0.00203183
vernier = 0.00101592
Gmin = 3.82939e-011
vernier = 0.00135455
vernier = 0.00180607
Gmin = 3.81623e-011
vernier = 0.00240809
Gmin = 3.79562e-011
vernier = 0.00321079
vernier = 0.0016054
Gmin = 0
Gmin stepping aborted per request.

Starting source stepping with srcstepmethod=0
Source Step = 3.0303%
Source Step = 33.3333%
Source Step = 40.1515%
Source Step = 45.2652%
Source Step = 47.1591%
Source Step = 49.053%
Source Step = 50.947%
Source Step = 52.8409%
vernier = 0.09375
Source Step = 54.4271%
Source Step = 55.1373%
Source Step = 55.8475%
Source Step = 56.5578%
Source Step = 57.268%
Source Step = 57.9782%
vernier = 0.0351563
Source Step = 58.8571%
Source Step = 59.1235%
Source Step = 59.3898%
Source Step = 59.6561%
Source Step = 59.9225%
Source stepping aborted.
Starting source stepping with srcstepmethod=1
Could not converge to DC with sources off!
Pseudo Transient failed in finding the operating point at 5.034 s.
Direct Newton iteration failed to find .op point.  (Use ".option noopiter" to skip.)
Starting Gmin stepping
Gmin = 10
Gmin = 1.07374
Gmin = 0.115292
Gmin = 0.0123794
Gmin = 0.00132923
Gmin = 0.000142725
Gmin = 1.5325e-005
Gmin = 1.6455e-006
Gmin = 1.76685e-007
Gmin = 1.89714e-008
vernier = 0.5
vernier = 0.25
Gmin = 8.96673e-009
vernier = 0.333333
vernier = 0.444444
vernier = 0.222222
vernier = 0.111111
Gmin = 5.39712e-009
vernier = 0.148148
Gmin = 3.88866e-009
vernier = 0.197531
vernier = 0.263374
vernier = 0.131687
vernier = 0.0658435
Gmin = 2.86488e-009
vernier = 0.0877914
Gmin = 2.35598e-009
vernier = 0.117055
vernier = 0.156073
vernier = 0.0780367
vernier = 0.0390184
Gmin = 1.90716e-009
vernier = 0.0520245
vernier = 0.0260122
Gmin = 0
Gmin stepping aborted per request.

Starting source stepping with srcstepmethod=0
Source Step = 3.0303%
Source Step = 33.3333%
Source Step = 40.1515%
Source Step = 44.1288%
Source Step = 46.0227%
Source stepping aborted.
Starting source stepping with srcstepmethod=1
Could not converge to DC with sources off!
Pseudo Transient failed in finding the operating point at 6.496 s.
Direct Newton iteration failed to find .op point.  (Use ".option noopiter" to skip.)
Starting Gmin stepping
Gmin = 10
Gmin = 1.07374
Gmin = 0.115292
Gmin = 0.0123794
Gmin = 0.00132923
Gmin = 0.000142725
Gmin = 1.5325e-005
Gmin = 1.6455e-006
Gmin = 1.76685e-007
Gmin = 1.89714e-008
vernier = 0.5
vernier = 0.25
Gmin = 8.96673e-009
vernier = 0.333333
vernier = 0.444444
vernier = 0.222222
vernier = 0.111111
Gmin = 5.39712e-009
vernier = 0.148148
Gmin = 3.88866e-009
vernier = 0.197531
vernier = 0.263374
vernier = 0.131687
vernier = 0.0658435
Gmin = 2.86488e-009
vernier = 0.0877914
Gmin = 2.35598e-009
vernier = 0.117055
vernier = 0.156073
vernier = 0.0780367
Gmin = 0
Gmin stepping aborted per request.

Starting source stepping with srcstepmethod=0
Source Step = 3.0303%
Source Step = 33.3333%
vernier = 0.25
Source Step = 37.8788%
Source Step = 42.4242%
Source Step = 44.3182%
Source stepping aborted.
Starting source stepping with srcstepmethod=1
Could not converge to DC with sources off!
Pseudo Transient failed in finding the operating point at 5.041 s.
Direct Newton iteration failed to find .op point.  (Use ".option noopiter" to skip.)
Starting Gmin stepping
Gmin = 10
Gmin = 1.07374
Gmin = 0.115292
Gmin = 0.0123794
Gmin = 0.00132923
Gmin = 0.000142725
Gmin = 1.5325e-005
Gmin = 1.6455e-006
Gmin = 1.76685e-007
Gmin = 1.89714e-008
vernier = 0.5
vernier = 0.25
vernier = 0.333333
Gmin = 1.03462e-008
vernier = 0.444444
vernier = 0.222222
vernier = 0.111111
Gmin = 6.56407e-009
vernier = 0.148148
vernier = 0.197531
Gmin = 4.63208e-009
vernier = 0.263374
vernier = 0.131687
vernier = 0.0658435
Gmin = 3.5231e-009
vernier = 0.0877914
vernier = 0.117055
Gmin = 2.86124e-009
vernier = 0.156073
vernier = 0.0780367
vernier = 0.0390184
Gmin = 2.42934e-009
vernier = 0.0520245
vernier = 0.0260122
Gmin = 0
Gmin stepping aborted per request.

Starting source stepping with srcstepmethod=0
Source Step = 3.0303%
Source Step = 33.3333%
vernier = 0.25
Source Step = 37.8788%
Source Step = 41.8561%
Source Step = 43.75%
Source stepping aborted.
Starting source stepping with srcstepmethod=1
Could not converge to DC with sources off!
Pseudo Transient failed in finding the operating point at 5.036 s.
Direct Newton iteration failed to find .op point.  (Use ".option noopiter" to skip.)
Starting Gmin stepping
Gmin = 10
Gmin = 1.07374
Gmin = 0.115292
Gmin = 0.0123794
Gmin = 0.00132923
Gmin = 0.000142725
Gmin = 1.5325e-005
Gmin = 1.6455e-006
Gmin = 1.76685e-007
Gmin = 1.89714e-008
vernier = 0.5
vernier = 0.25
vernier = 0.333333
Gmin = 1.1938e-008
vernier = 0.444444
vernier = 0.222222
vernier = 0.111111
Gmin = 7.98333e-009
vernier = 0.148148
vernier = 0.197531
Gmin = 5.51762e-009
vernier = 0.263374
vernier = 0.131687
vernier = 0.0658435
Gmin = 4.33256e-009
vernier = 0.0877914
vernier = 0.117055
Gmin = 3.47486e-009
vernier = 0.156073
vernier = 0.0780367
vernier = 0.0390184
Gmin = 3.00734e-009
vernier = 0.0520245
vernier = 0.0260122
Gmin = 0
Gmin stepping aborted per request.

Starting source stepping with srcstepmethod=0
Source Step = 3.0303%
Source Step = 33.3333%
vernier = 0.25
Source Step = 37.8788%
Source Step = 40.7197%
Source Step = 42.6136%
Source stepping aborted.
Starting source stepping with srcstepmethod=1
Could not converge to DC with sources off!
Pseudo Transient failed in finding the operating point at 10.424 s.

Date: Thu Nov 04 18:58:42 2021
Total elapsed time: 84.040 seconds.

tnom = 27
temp = 27
method = trap
totiter = 28400225
traniter = 0
tranpoints = 0
accept = 0
rejected = 843734
matrix size = 5
fillins = 0
solver = Normal
Matrix Compiler1: 186 bytes object code size  0.2/0.1/[0.1]
Matrix Compiler2: 349 bytes object code size  0.1/0.2/[0.1]

