Circuit: * C:\users\tta21\My Documents\work\Univali\2021-2\Eletronica Basica\A_08-10\Draft1.asc

.OP point found by inspection.
.step i1=0
.step i1=0.0001
.step i1=0.0002
.step i1=0.0003
.step i1=0.0004
.step i1=0.0005
.step i1=0.0006
.step i1=0.0007
.step i1=0.0008
.step i1=0.0009
.step i1=0.001

Date: Thu Oct 21 20:10:08 2021
Total elapsed time: 0.131 seconds.

tnom = 27
temp = 27
method = trap
totiter = 489
traniter = 0
tranpoints = 0
accept = 0
rejected = 0
matrix size = 6
fillins = 0
solver = Normal
Matrix Compiler1: 280 bytes object code size  0.4/0.3/[0.2]
Matrix Compiler2: 428 bytes object code size  0.3/0.4/[0.1]

